# File generated by Flopy version 3.6.0.dev0 on 02/07/2024 at 20:14:47.
BEGIN options
  BUDGET  FILEOUT  ex-gwf-curvilin.cbc
  HEAD  FILEOUT  ex-gwf-curvilin.hds
  HEAD  PRINT_FORMAT  COLUMNS  54  WIDTH  15  DIGITS  6  GENERAL
END options

BEGIN period  1
  SAVE  HEAD  ALL
  SAVE  BUDGET  ALL
  PRINT  HEAD  ALL
  PRINT  BUDGET  ALL
END period  1

