# File generated by Flopy version 3.6.0.dev0 on 02/07/2024 at 20:14:47.
BEGIN options
  SAVE_FLOWS
END options

BEGIN dimensions
  MAXBOUND  16
END dimensions

BEGIN period  1
  1 577 3.33333333E+00
  1 595 3.33333333E+00
  1 613 3.33333333E+00
  1 631 3.33333333E+00
  1 649 3.33333333E+00
  1 667 3.33333333E+00
  1 685 3.33333333E+00
  1 703 3.33333333E+00
  1 721 3.33333333E+00
  1 739 3.33333333E+00
  1 757 3.33333333E+00
  1 775 3.33333333E+00
  1 793 3.33333333E+00
  1 811 3.33333333E+00
  1 829 3.33333333E+00
  1 847 3.33333333E+00
END period  1

