# File generated by Flopy version 3.6.0.dev0 on 02/07/2024 at 20:14:47.
BEGIN options
  SAVE_FLOWS
END options

BEGIN packages
  DISV6  ex-gwf-curvilin.disv  disv
  NPF6  ex-gwf-curvilin.npf  npf
  STO6  ex-gwf-curvilin.sto  sto
  IC6  ex-gwf-curvilin.ic  ic
  CHD6  ex-gwf-curvilin.left.chd  chd-left
  CHD6  ex-gwf-curvilin.right.chd  chd-right
  OC6  ex-gwf-curvilin.oc  oc
END packages

