# File generated by Flopy version 3.6.0.dev0 on 02/07/2024 at 20:14:47.
BEGIN options
END options

BEGIN timing
  TDIS6  ex-gwf-curvilin.tdis
END timing

BEGIN models
  gwf6  ex-gwf-curvilin.nam  ex-gwf-curvilin
END models

BEGIN exchanges
END exchanges

BEGIN solutiongroup  1
  ims6  ex-gwf-curvilin.ims  ex-gwf-curvilin
END solutiongroup  1

