# File generated by Flopy version 3.6.0.dev0 on 02/07/2024 at 20:14:53.
BEGIN options
  STORAGECOEFFICIENT
END options

BEGIN griddata
  iconvert
    CONSTANT  0
  ss
    CONSTANT  1.00000000E-06
END griddata

BEGIN period  1
  TRANSIENT
END period  1

