# File generated by Flopy version 3.6.0.dev0 on 02/07/2024 at 20:14:53.
BEGIN options
END options

BEGIN continuous  FILEOUT  ex-gwf-fhb.obs.flow.csv
  icf1  flow-ja-face  1 2 2  1 2 1
END continuous  FILEOUT  ex-gwf-fhb.obs.flow.csv

BEGIN continuous  FILEOUT  ex-gwf-fhb.obs.head.csv
  h1_2_1  head  1 2 1
  h1_2_10  head  1 2 10
END continuous  FILEOUT  ex-gwf-fhb.obs.head.csv

