# File generated by Flopy version 3.6.0.dev0 on 02/07/2024 at 20:15:35.
BEGIN options
  SORPTION  langmuir
END options

BEGIN griddata
  porosity
    CONSTANT       0.37000000
  bulk_density
    CONSTANT       1.58700000
  distcoef
    CONSTANT     100.00000000
  sp2
    CONSTANT       0.00300000
END griddata

