# File generated by Flopy version 3.6.0.dev0 on 02/07/2024 at 20:14:55.
BEGIN options
  TIME_UNITS  days
END options

BEGIN dimensions
  NPER  353
END dimensions

BEGIN perioddata
     365.25000000  12       1.00000000
     365.25000000  12       1.00000000
     365.25000000  12       1.00000000
     365.25000000  12       1.00000000
     365.25000000  12       1.00000000
     365.25000000  12       1.00000000
     365.25000000  12       1.00000000
     365.25000000  12       1.00000000
     365.25000000  12       1.00000000
     365.25000000  12       1.00000000
     365.25000000  12       1.00000000
     365.25000000  12       1.00000000
     365.25000000  12       1.00000000
     365.25000000  12       1.00000000
     365.25000000  12       1.00000000
     365.25000000  12       1.00000000
     365.25000000  12       1.00000000
     365.25000000  12       1.00000000
     365.25000000  12       1.00000000
     365.25000000  12       1.00000000
     365.25000000  12       1.00000000
     365.25000000  12       1.00000000
     365.25000000  12       1.00000000
     365.25000000  12       1.00000000
     365.25000000  12       1.00000000
     365.25000000  12       1.00000000
     365.25000000  12       1.00000000
     365.25000000  12       1.00000000
     365.25000000  12       1.00000000
     365.25000000  12       1.00000000
     365.25000000  12       1.00000000
     365.25000000  12       1.00000000
     365.25000000  12       1.00000000
     365.25000000  12       1.00000000
     365.25000000  12       1.00000000
     365.25000000  12       1.00000000
     365.25000000  12       1.00000000
     365.25000000  12       1.00000000
     365.25000000  12       1.00000000
     365.25000000  12       1.00000000
     365.25000000  12       1.00000000
     365.25000000  12       1.00000000
     365.25000000  12       1.00000000
     365.25000000  12       1.00000000
     365.25000000  12       1.00000000
     365.25000000  12       1.00000000
     365.25000000  12       1.00000000
     365.25000000  12       1.00000000
     365.25000000  12       1.00000000
     365.25000000  12       1.00000000
     365.25000000  12       1.00000000
     365.25000000  12       1.00000000
     365.25000000  12       1.00000000
     365.25000000  12       1.00000000
     365.25000000  12       1.00000000
     365.25000000  12       1.00000000
     365.25000000  12       1.00000000
     365.25000000  12       1.00000000
     365.25000000  12       1.00000000
     365.25000000  12       1.00000000
     365.25000000  12       1.00000000
     365.25000000  12       1.00000000
     365.25000000  12       1.00000000
     365.25000000  12       1.00000000
     365.25000000  12       1.00000000
     365.25000000  12       1.00000000
     365.25000000  12       1.00000000
     365.25000000  12       1.00000000
     365.25000000  12       1.00000000
     365.25000000  12       1.00000000
     365.25000000  12       1.00000000
     365.25000000  12       1.00000000
     365.25000000  12       1.00000000
     365.25000000  12       1.00000000
     365.25000000  12       1.00000000
     365.25000000  12       1.00000000
     365.25000000  12       1.00000000
     365.25000000  12       1.00000000
     365.25000000  12       1.00000000
     365.25000000  12       1.00000000
     365.25000000  12       1.00000000
     365.25000000  12       1.00000000
      22.00000000  22       1.00000000
      22.00000000  22       1.00000000
      22.00000000  22       1.00000000
      22.00000000  22       1.00000000
      22.00000000  22       1.00000000
      22.00000000  22       1.00000000
      22.00000000  22       1.00000000
      22.00000000  22       1.00000000
      22.00000000  22       1.00000000
      22.00000000  22       1.00000000
      22.00000000  22       1.00000000
      22.00000000  22       1.00000000
      22.00000000  22       1.00000000
      22.00000000  22       1.00000000
      22.00000000  22       1.00000000
      22.00000000  22       1.00000000
      22.00000000  22       1.00000000
      22.00000000  22       1.00000000
      22.00000000  22       1.00000000
      22.00000000  22       1.00000000
      22.00000000  22       1.00000000
      22.00000000  22       1.00000000
      22.00000000  22       1.00000000
      22.00000000  22       1.00000000
      22.00000000  22       1.00000000
      22.00000000  22       1.00000000
      22.00000000  22       1.00000000
      22.00000000  22       1.00000000
      22.00000000  22       1.00000000
      22.00000000  22       1.00000000
      22.00000000  22       1.00000000
      22.00000000  22       1.00000000
      22.00000000  22       1.00000000
      22.00000000  22       1.00000000
      22.00000000  22       1.00000000
      22.00000000  22       1.00000000
      22.00000000  22       1.00000000
      22.00000000  22       1.00000000
      22.00000000  22       1.00000000
      22.00000000  22       1.00000000
      22.00000000  22       1.00000000
      22.00000000  22       1.00000000
      22.00000000  22       1.00000000
      22.00000000  22       1.00000000
      22.00000000  22       1.00000000
      22.00000000  22       1.00000000
      22.00000000  22       1.00000000
      22.00000000  22       1.00000000
      22.00000000  22       1.00000000
      22.00000000  22       1.00000000
      22.00000000  22       1.00000000
      22.00000000  22       1.00000000
      22.00000000  22       1.00000000
      22.00000000  22       1.00000000
      22.00000000  22       1.00000000
      22.00000000  22       1.00000000
      22.00000000  22       1.00000000
      22.00000000  22       1.00000000
      22.00000000  22       1.00000000
      22.00000000  22       1.00000000
      22.00000000  22       1.00000000
      22.00000000  22       1.00000000
      22.00000000  22       1.00000000
      22.00000000  22       1.00000000
      22.00000000  22       1.00000000
      22.00000000  22       1.00000000
      22.00000000  22       1.00000000
      22.00000000  22       1.00000000
      22.00000000  22       1.00000000
      22.00000000  22       1.00000000
      22.00000000  22       1.00000000
      22.00000000  22       1.00000000
      22.00000000  22       1.00000000
      22.00000000  22       1.00000000
      22.00000000  22       1.00000000
      22.00000000  22       1.00000000
      22.00000000  22       1.00000000
      22.00000000  22       1.00000000
      22.00000000  22       1.00000000
      22.00000000  22       1.00000000
      22.00000000  22       1.00000000
      22.00000000  22       1.00000000
      22.00000000  22       1.00000000
      22.00000000  22       1.00000000
      22.00000000  22       1.00000000
      22.00000000  22       1.00000000
      22.00000000  22       1.00000000
      22.00000000  22       1.00000000
      22.00000000  22       1.00000000
      22.00000000  22       1.00000000
      22.00000000  22       1.00000000
      22.00000000  22       1.00000000
      22.00000000  22       1.00000000
      22.00000000  22       1.00000000
      22.00000000  22       1.00000000
      22.00000000  22       1.00000000
      22.00000000  22       1.00000000
      22.00000000  22       1.00000000
      22.00000000  22       1.00000000
      22.00000000  22       1.00000000
      22.00000000  22       1.00000000
      22.00000000  22       1.00000000
      22.00000000  22       1.00000000
      22.00000000  22       1.00000000
      22.00000000  22       1.00000000
      22.00000000  22       1.00000000
      22.00000000  22       1.00000000
      22.00000000  22       1.00000000
      22.00000000  22       1.00000000
      22.00000000  22       1.00000000
      22.00000000  22       1.00000000
      22.00000000  22       1.00000000
      22.00000000  22       1.00000000
      22.00000000  22       1.00000000
      22.00000000  22       1.00000000
      22.00000000  22       1.00000000
      22.00000000  22       1.00000000
      22.00000000  22       1.00000000
      22.00000000  22       1.00000000
      22.00000000  22       1.00000000
      22.00000000  22       1.00000000
      22.00000000  22       1.00000000
      22.00000000  22       1.00000000
      22.00000000  22       1.00000000
      22.00000000  22       1.00000000
      22.00000000  22       1.00000000
      22.00000000  22       1.00000000
      22.00000000  22       1.00000000
      22.00000000  22       1.00000000
      22.00000000  22       1.00000000
      22.00000000  22       1.00000000
      22.00000000  22       1.00000000
      22.00000000  22       1.00000000
      22.00000000  22       1.00000000
      22.00000000  22       1.00000000
      22.00000000  22       1.00000000
      22.00000000  22       1.00000000
      22.00000000  22       1.00000000
      22.00000000  22       1.00000000
      22.00000000  22       1.00000000
      22.00000000  22       1.00000000
      22.00000000  22       1.00000000
      22.00000000  22       1.00000000
      22.00000000  22       1.00000000
      22.00000000  22       1.00000000
      22.00000000  22       1.00000000
      22.00000000  22       1.00000000
      22.00000000  22       1.00000000
      22.00000000  22       1.00000000
      22.00000000  22       1.00000000
      22.00000000  22       1.00000000
      22.00000000  22       1.00000000
      22.00000000  22       1.00000000
      22.00000000  22       1.00000000
      22.00000000  22       1.00000000
      22.00000000  22       1.00000000
      22.00000000  22       1.00000000
      22.00000000  22       1.00000000
      22.00000000  22       1.00000000
      22.00000000  22       1.00000000
      22.00000000  22       1.00000000
      22.00000000  22       1.00000000
      22.00000000  22       1.00000000
      22.00000000  22       1.00000000
      22.00000000  22       1.00000000
      22.00000000  22       1.00000000
      22.00000000  22       1.00000000
      22.00000000  22       1.00000000
      22.00000000  22       1.00000000
      22.00000000  22       1.00000000
      22.00000000  22       1.00000000
      22.00000000  22       1.00000000
      22.00000000  22       1.00000000
      22.00000000  22       1.00000000
      22.00000000  22       1.00000000
      22.00000000  22       1.00000000
      22.00000000  22       1.00000000
      22.00000000  22       1.00000000
      22.00000000  22       1.00000000
      22.00000000  22       1.00000000
      22.00000000  22       1.00000000
      22.00000000  22       1.00000000
      22.00000000  22       1.00000000
      22.00000000  22       1.00000000
      22.00000000  22       1.00000000
      22.00000000  22       1.00000000
      22.00000000  22       1.00000000
      22.00000000  22       1.00000000
      22.00000000  22       1.00000000
      22.00000000  22       1.00000000
      22.00000000  22       1.00000000
      22.00000000  22       1.00000000
      22.00000000  22       1.00000000
      22.00000000  22       1.00000000
      22.00000000  22       1.00000000
      22.00000000  22       1.00000000
      22.00000000  22       1.00000000
      22.00000000  22       1.00000000
      22.00000000  22       1.00000000
      22.00000000  22       1.00000000
      22.00000000  22       1.00000000
      22.00000000  22       1.00000000
      22.00000000  22       1.00000000
      22.00000000  22       1.00000000
      22.00000000  22       1.00000000
      22.00000000  22       1.00000000
      22.00000000  22       1.00000000
      22.00000000  22       1.00000000
      22.00000000  22       1.00000000
      22.00000000  22       1.00000000
      22.00000000  22       1.00000000
      22.00000000  22       1.00000000
      22.00000000  22       1.00000000
      22.00000000  22       1.00000000
      22.00000000  22       1.00000000
      22.00000000  22       1.00000000
      22.00000000  22       1.00000000
      22.00000000  22       1.00000000
      22.00000000  22       1.00000000
      22.00000000  22       1.00000000
      22.00000000  22       1.00000000
      22.00000000  22       1.00000000
      22.00000000  22       1.00000000
      22.00000000  22       1.00000000
      22.00000000  22       1.00000000
      22.00000000  22       1.00000000
      22.00000000  22       1.00000000
      22.00000000  22       1.00000000
      22.00000000  22       1.00000000
      22.00000000  22       1.00000000
      22.00000000  22       1.00000000
      22.00000000  22       1.00000000
      22.00000000  22       1.00000000
      22.00000000  22       1.00000000
      22.00000000  22       1.00000000
      22.00000000  22       1.00000000
      22.00000000  22       1.00000000
      22.00000000  22       1.00000000
      22.00000000  22       1.00000000
      22.00000000  22       1.00000000
      22.00000000  22       1.00000000
      22.00000000  22       1.00000000
      22.00000000  22       1.00000000
      22.00000000  22       1.00000000
      22.00000000  22       1.00000000
      22.00000000  22       1.00000000
      22.00000000  22       1.00000000
      22.00000000  22       1.00000000
      22.00000000  22       1.00000000
      22.00000000  22       1.00000000
      22.00000000  22       1.00000000
      22.00000000  22       1.00000000
      22.00000000  22       1.00000000
      22.00000000  22       1.00000000
      22.00000000  22       1.00000000
      22.00000000  22       1.00000000
      22.00000000  22       1.00000000
      22.00000000  22       1.00000000
      22.00000000  22       1.00000000
      22.00000000  22       1.00000000
      22.00000000  22       1.00000000
      22.00000000  22       1.00000000
      22.00000000  22       1.00000000
      22.00000000  22       1.00000000
      22.00000000  22       1.00000000
      22.00000000  22       1.00000000
      22.00000000  22       1.00000000
      22.00000000  22       1.00000000
      22.00000000  22       1.00000000
      22.00000000  22       1.00000000
      22.00000000  22       1.00000000
END perioddata

