# File generated by Flopy version 3.6.0.dev0 on 02/07/2024 at 20:14:55.
BEGIN options
  SAVE_FLOWS
END options

BEGIN packages
  DIS6  ex-gwf-csub-p03b.dis  dis
  OBS6  ex-gwf-csub-p03b.gwf.obs  obs_0
  IC6  ex-gwf-csub-p03b.ic  ic
  NPF6  ex-gwf-csub-p03b.npf  npf
  STO6  ex-gwf-csub-p03b.sto  sto
  CSUB6  ex-gwf-csub-p03b.csub  csub
  CHD6  ex-gwf-csub-p03b.chd  chd_0
  OC6  ex-gwf-csub-p03b.oc  oc
END packages

