# File generated by Flopy version 3.6.0.dev0 on 02/07/2024 at 20:14:55.
BEGIN options
END options

BEGIN timing
  TDIS6  ex-gwf-csub-p03b.tdis
END timing

BEGIN models
  gwf6  ex-gwf-csub-p03b.nam  ex-gwf-csub-p03b
END models

BEGIN exchanges
END exchanges

BEGIN solutiongroup  1
  ims6  ex-gwf-csub-p03b.ims  ex-gwf-csub-p03b
END solutiongroup  1

