# File generated by Flopy version 3.6.0.dev0 on 02/07/2024 at 20:14:56.
BEGIN options
END options

BEGIN griddata
  iconvert
    CONSTANT  1
  ss
    CONSTANT  3.00000000E-04
  sy
    CONSTANT       0.20000000
END griddata

