# File generated by Flopy version 3.6.0.dev0 on 02/07/2024 at 20:15:19.
BEGIN options
END options

BEGIN dimensions
  MAXBOUND  3
END dimensions

BEGIN period  1
  1 46 80 2.40000000E+01
  1 47 80 2.40000000E+01
  1 48 80 2.40000000E+01
END period  1

