# File generated by Flopy version 3.6.0.dev0 on 02/07/2024 at 20:15:21.
BEGIN options
  LENGTH_UNITS  meters
END options

BEGIN dimensions
  NLAY  10
  NROW  10
  NCOL  51
END dimensions

BEGIN griddata
  delr
    CONSTANT     100.00000000
  delc
    CONSTANT     100.00000000
  top
    CONSTANT       0.00000000
  botm  LAYERED
    CONSTANT    -100.00000000
    CONSTANT    -200.00000000
    CONSTANT    -300.00000000
    CONSTANT    -400.00000000
    CONSTANT    -500.00000000
    CONSTANT    -600.00000000
    CONSTANT    -700.00000000
    CONSTANT    -800.00000000
    CONSTANT    -900.00000000
    CONSTANT   -1000.00000000
END griddata

