# File generated by Flopy version 3.6.0.dev0 on 02/07/2024 at 20:15:21.
BEGIN options
END options

BEGIN timing
  TDIS6  ex-gwf-whirl.tdis
END timing

BEGIN models
  gwf6  ex-gwf-whirl.nam  ex-gwf-whirl
END models

BEGIN exchanges
END exchanges

BEGIN solutiongroup  1
  ims6  ex-gwf-whirl.ims  ex-gwf-whirl
END solutiongroup  1

