# File generated by Flopy version 3.6.0.dev0 on 02/07/2024 at 20:15:27.
BEGIN options
END options

BEGIN griddata
  diffc
    CONSTANT  1.84000000E-06
  alh
    CONSTANT       0.50000000
  ath1
    CONSTANT       0.05000000
  atv
    CONSTANT       0.05000000
END griddata

