# File generated by Flopy version 3.6.0.dev0 on 02/07/2024 at 20:15:27.
BEGIN options
  PRINT_FLOWS
END options

BEGIN dimensions
  MAXBOUND  1
END dimensions

BEGIN period  1
  7 42 22  -1.43400000E-05
END period  1

