# File generated by Flopy version 3.6.0.dev0 on 02/07/2024 at 20:15:27.
BEGIN griddata
  strt
    CONSTANT     285.15000000
END griddata

