# File generated by Flopy version 3.6.0.dev0 on 02/07/2024 at 20:15:42.
BEGIN options
  READASARRAYS
  PRINT_FLOWS
END options

BEGIN period  1
  recharge
    CONSTANT  2.73972603E-04
END period  1

