# File generated by Flopy version 3.6.0.dev0 on 02/07/2024 at 20:15:42.
BEGIN griddata
  strt
    CONSTANT       0.00000000
END griddata

