# File generated by Flopy version 3.6.0.dev0 on 02/07/2024 at 20:14:45.
BEGIN options
END options

BEGIN dimensions
  MAXBOUND  8
END dimensions

BEGIN period  1
  1 20 8 1.00000000E+02
  2 20 8 1.00000000E+02
  3 20 8 1.00000000E+02
  4 20 8 1.00000000E+02
  1 20 9 1.00000000E+02
  2 20 9 1.00000000E+02
  3 20 9 1.00000000E+02
  4 20 9 1.00000000E+02
END period  1

