# File generated by Flopy version 3.6.0.dev0 on 02/07/2024 at 20:14:45.
BEGIN options
  TIME_UNITS  days
END options

BEGIN dimensions
  NPER  3
END dimensions

BEGIN perioddata
       0.00000000  1       1.00000000
   21915.00000000  60       1.00000000
   21915.00000000  60       1.00000000
END perioddata

