# File generated by Flopy version 3.6.0.dev0 on 02/07/2024 at 20:14:45.
BEGIN options
END options

BEGIN dimensions
  MAXBOUND  2
END dimensions

BEGIN period  2
  2 9 10 -72000
  4 12 7 -72000
END period  2

BEGIN period  3
  2 9 10 0.00000000E+00
  4 12 7 0.00000000E+00
END period  3

