# File generated by Flopy version 3.6.0.dev0 on 02/07/2024 at 20:15:43.
BEGIN options
  PRINT_FLOWS
END options

BEGIN sources
  WEL-1  AUX  CONCENTRATION
  CHD-1  AUX  CONCENTRATION
END sources

