# File generated by Flopy version 3.6.0.dev0 on 02/07/2024 at 20:15:43.
BEGIN options
END options

BEGIN griddata
  alh
    CONSTANT      20.00000000
  ath1
    CONSTANT       4.00000000
END griddata

