# File generated by Flopy version 3.6.0.dev0 on 02/07/2024 at 20:15:33.
BEGIN options
  PRINT_OPTION  summary
END options

BEGIN nonlinear
  OUTER_DVCLOSE       0.01000000
  UNDER_RELAXATION  simple
  UNDER_RELAXATION_GAMMA       0.90000000
END nonlinear

BEGIN linear
  INNER_DVCLOSE       0.01000000
  LINEAR_ACCELERATION  bicgstab
  RELAXATION_FACTOR       0.99000000
END linear

