# File generated by Flopy version 3.6.0.dev0 on 02/07/2024 at 20:16:59.
BEGIN options
  SAVE_FLOWS
END options

BEGIN packages
  DIS6  inner.dis  dis
  IC6  inner.ic  ic
  NPF6  inner.npf  npf
  OC6  inner.oc  oc
END packages

