# File generated by Flopy version 3.6.0.dev0 on 02/07/2024 at 20:16:59.
BEGIN options
END options

BEGIN timing
  TDIS6  ex-gwf-u1gwfgwf-s4.tdis
END timing

BEGIN models
  gwf6  outer.nam  outer
  gwf6  inner.nam  inner
END models

BEGIN exchanges
  GWF6-GWF6  ex-gwf-u1gwfgwf-s4.gwfgwf  outer  inner
END exchanges

BEGIN solutiongroup  1
  ims6  ex-gwf-u1gwfgwf-s4.ims  outer  inner
END solutiongroup  1

