# File generated by Flopy version 3.6.0.dev0 on 02/07/2024 at 20:14:52.
BEGIN options
END options

BEGIN dimensions
  MAXBOUND  2
END dimensions

BEGIN period  1
  1 1 1 0.00000000E+00
  1 1 3 0.00000000E+00
END period  1

