# DIS package for  MODFLOW-2005, generated by Flopy.
         3        15        15         1         4         2
  0  0  0
CONSTANT    5.000000E+03                           #delr                          
CONSTANT    5.000000E+03                           #delc                          
CONSTANT    2.000000E+02                           #model_top                     
CONSTANT    2.000000E+02                           #botm layer 1                  
CONSTANT   -1.250000E+02                           #botm layer 2                  
CONSTANT   -4.500000E+02                           #botm layer 3                  
      1.000000             1  1.000000  SS 
