# File generated by Flopy version 3.6.0.dev0 on 02/07/2024 at 20:15:28.
BEGIN options
  TIME_UNITS  seconds
END options

BEGIN dimensions
  NPER  1
END dimensions

BEGIN perioddata
       0.50000000  500       1.00000000
END perioddata

