# File generated by Flopy version 3.6.0.dev0 on 02/07/2024 at 20:15:28.
BEGIN options
  XT3D_OFF
END options

BEGIN griddata
  diffc
    CONSTANT       0.57024000
END griddata

