# File generated by Flopy version 3.6.0.dev0 on 02/07/2024 at 20:16:56.
BEGIN options
  SAVE_FLOWS
END options

BEGIN packages
  DIS6  ex-gwf-spbc.dis  dis
  NPF6  ex-gwf-spbc.npf  npf
  IC6  ex-gwf-spbc.ic  ic
  CHD6  ex-gwf-spbc.chd  chd
  OC6  ex-gwf-spbc.oc  oc
END packages

