# File generated by Flopy version 3.6.0.dev0 on 02/07/2024 at 20:16:56.
BEGIN options
  BUDGET  FILEOUT  ex-gwf-spbc.cbc
  HEAD  FILEOUT  ex-gwf-spbc.hds
END options

BEGIN period  1
  SAVE  HEAD  ALL
  SAVE  BUDGET  ALL
END period  1

