# File generated by Flopy version 3.6.0.dev0 on 02/07/2024 at 20:15:29.
BEGIN options
  CONTINUE
END options

BEGIN timing
  TDIS6  trans.tdis
END timing

BEGIN models
  gwt6  trans.nam  trans
END models

BEGIN exchanges
END exchanges

BEGIN solutiongroup  1
  ims6  trans.ims  trans
END solutiongroup  1

