# File generated by Flopy version 3.6.0.dev0 on 02/07/2024 at 20:15:29.
BEGIN options
  DIGITS  10
  PRINT_INPUT
END options

BEGIN continuous  FILEOUT  trans.obs.csv
  obs1  CONCENTRATION  49 1 119
  obs2  CONCENTRATION  77 1 359
END continuous  FILEOUT  trans.obs.csv

