# File generated by Flopy version 3.6.0.dev0 on 02/07/2024 at 20:15:29.
BEGIN options
END options

BEGIN sources
  RCH-1  AUX  CONCENTRATION
END sources

