# File generated by Flopy version 3.6.0.dev0 on 02/07/2024 at 20:15:29.
BEGIN options
  FLOW_IMBALANCE_CORRECTION
END options

BEGIN packagedata
  GWFHEAD  FILEIN  ../mf6gwf/flow.hds
  GWFBUDGET  FILEIN  ../mf6gwf/flow.bud
END packagedata

