# File generated by Flopy version 3.6.0.dev0 on 02/07/2024 at 20:14:52.
BEGIN options
  SAVE_FLOWS
  NEWTON
END options

BEGIN packages
  DIS6  ex-gwf-csub-p02b.dis  dis
  OBS6  ex-gwf-csub-p02b.obs  obs_0
  IC6  ex-gwf-csub-p02b.ic  ic
  NPF6  ex-gwf-csub-p02b.npf  npf
  STO6  ex-gwf-csub-p02b.sto  sto
  CSUB6  ex-gwf-csub-p02b.csub  csub
  CHD6  ex-gwf-csub-p02b.chd  chd_0
  OC6  ex-gwf-csub-p02b.oc  oc
END packages

