# File generated by Flopy version 3.6.0.dev0 on 02/07/2024 at 20:15:15.
BEGIN options
END options

BEGIN griddata
  iconvert
    CONSTANT  0
  ss
    CONSTANT  1.00000000E-04
  sy
    CONSTANT       0.15000000
END griddata

