# File generated by Flopy version 3.6.0.dev0 on 02/07/2024 at 20:15:15.
BEGIN options
  SAVE_FLOWS
END options

BEGIN packages
  DIS6  ex-gwf-maw-p02.dis  dis
  NPF6  ex-gwf-maw-p02.npf  npf
  STO6  ex-gwf-maw-p02.sto  sto
  IC6  ex-gwf-maw-p02.ic  ic
  MAW6  ex-gwf-maw-p02.maw  maw_0
  OC6  ex-gwf-maw-p02.oc  oc
END packages

