# File generated by Flopy version 3.6.0.dev0 on 02/07/2024 at 20:15:15.
BEGIN options
  SAVE_SPECIFIC_DISCHARGE
END options

BEGIN griddata
  icelltype
    CONSTANT  0
  k
    CONSTANT       1.00000000
  k33
    CONSTANT  1.00000000E-16
END griddata

