# File generated by Flopy version 3.6.0.dev0 on 02/07/2024 at 20:15:15.
BEGIN options
END options

BEGIN timing
  TDIS6  ex-gwf-maw-p02.tdis
END timing

BEGIN models
  gwf6  ex-gwf-maw-p02.nam  ex-gwf-maw-p02
END models

BEGIN exchanges
END exchanges

BEGIN solutiongroup  1
  ims6  ex-gwf-maw-p02.ims  ex-gwf-maw-p02
END solutiongroup  1

