# File generated by Flopy version 3.6.0.dev0 on 02/07/2024 at 20:15:31.
BEGIN options
  PRINT_OPTION  summary
END options

BEGIN linear
  INNER_MAXIMUM  300
END linear

