# File generated by Flopy version 3.6.0.dev0 on 02/07/2024 at 20:14:53.
BEGIN options
  DIGITS  10
  PRINT_INPUT
END options

BEGIN continuous  FILEOUT  gwf_obs.csv
  h1_1_2  HEAD  1 1 2
END continuous  FILEOUT  gwf_obs.csv

