# File generated by Flopy version 3.6.0.dev0 on 02/07/2024 at 20:14:50.
BEGIN options
END options

BEGIN nonlinear
  OUTER_DVCLOSE  1.00000000E-08
  OUTER_MAXIMUM  100
END nonlinear

BEGIN linear
  INNER_MAXIMUM  25
  INNER_DVCLOSE  1.00000000E-09
  inner_rclose       0.00100000  strict
  LINEAR_ACCELERATION  bicgstab
END linear

