# File generated by Flopy version 3.6.0.dev0 on 02/07/2024 at 20:14:50.
BEGIN options
  READASARRAYS
END options

BEGIN period  1
  recharge
    CONSTANT  1.60000000E-09
END period  1

