# File generated by Flopy version 3.6.0.dev0 on 02/07/2024 at 20:14:52.
BEGIN options
  PRINT_OPTION  summary
END options

BEGIN nonlinear
  OUTER_DVCLOSE  1.00000000E-06
  OUTER_MAXIMUM  100
END nonlinear

BEGIN linear
  INNER_MAXIMUM  50
  INNER_DVCLOSE  1.00000000E-06
  inner_rclose  1.00000000E-06  strict
  LINEAR_ACCELERATION  bicgstab
END linear

