# File generated by Flopy version 3.6.0.dev0 on 02/07/2024 at 20:14:52.
BEGIN options
  TIME_UNITS  seconds
END options

BEGIN dimensions
  NPER  12
END dimensions

BEGIN perioddata
  2.62800000E+06  1       1.00000000
  2.62800000E+06  15       1.10000000
  2.62800000E+06  15       1.10000000
  2.62800000E+06  15       1.10000000
  2.62800000E+06  15       1.10000000
  2.62800000E+06  15       1.10000000
  2.62800000E+06  15       1.10000000
  2.62800000E+06  15       1.10000000
  2.62800000E+06  15       1.10000000
  2.62800000E+06  15       1.10000000
  2.62800000E+06  15       1.10000000
  2.62800000E+06  15       1.10000000
END perioddata

