# File generated by Flopy version 3.6.0.dev0 on 02/07/2024 at 20:14:52.
BEGIN options
  DIGITS  10
  PRINT_INPUT
END options

BEGIN continuous  FILEOUT  ex-gwf-drn-p01.surfrate.obs.csv
  surfrate  uzf-gwd-to-mvr  surfrate
  netinfil  net-infiltration  surfrate
END continuous  FILEOUT  ex-gwf-drn-p01.surfrate.obs.csv

