# File generated by Flopy version 3.8.2 on 11/26/2024 at 19:48:17.
BEGIN options
  SAVE_FLOWS
END options

BEGIN packages
  DIS6  flow.dis  dis
  IC6  flow.ic  ic
  NPF6  flow.npf  npf
  CHD6  flow.chd  chd_0
  WEL6  flow.wel  wel-1
  OC6  flow.oc  oc
END packages

