# File generated by Flopy version 3.8.2 on 11/26/2024 at 19:48:17.
BEGIN options
END options

BEGIN griddata
  strt
    CONSTANT       1.00000000
END griddata

