# File generated by Flopy version 3.8.2 on 11/26/2024 at 19:48:17.
BEGIN options
  BUDGET  FILEOUT  flow.bud
  HEAD  FILEOUT  flow.hds
END options

BEGIN period  1
  SAVE  HEAD  ALL
  SAVE  BUDGET  ALL
END period  1

