# File generated by Flopy version 3.8.2 on 11/26/2024 at 19:48:17.
BEGIN options
END options

BEGIN dimensions
  MAXBOUND  1
END dimensions

BEGIN period  1
  1 1 120 1.00000000E+00
END period  1

