# File generated by Flopy version 3.8.2 on 11/26/2024 at 19:49:26.
BEGIN options
END options

BEGIN sources
  WEL-1  AUX  CONCENTRATION
END sources

