# File generated by Flopy version 3.8.2 on 11/26/2024 at 19:49:26.
BEGIN options
  TIME_UNITS  seconds
END options

BEGIN dimensions
  NPER  1
END dimensions

BEGIN perioddata
     120.00000000  240       1.00000000
END perioddata

