# File generated by Flopy version 3.8.2 on 11/26/2024 at 19:49:26.
BEGIN options
  BUDGET  FILEOUT  transport.bud
  CONCENTRATION  FILEOUT  transport.ucn
END options

BEGIN period  1
  SAVE  CONCENTRATION  ALL
  SAVE  BUDGET  LAST
  PRINT  CONCENTRATION  LAST
  PRINT  BUDGET  LAST
END period  1

