# File generated by Flopy version 3.8.2 on 11/26/2024 at 19:49:26.
BEGIN options
  FIRST_ORDER_DECAY
END options

BEGIN griddata
  porosity
    CONSTANT       0.10000000
  decay
    CONSTANT       0.01000000
END griddata

