# File generated by Flopy version 3.8.2 on 11/26/2024 at 19:49:26.
BEGIN options
  XT3D_OFF
END options

BEGIN griddata
  alh
    CONSTANT       1.00000000
  ath1
    CONSTANT       1.00000000
END griddata

