# File generated by Flopy version 3.6.0.dev0 on 02/07/2024 at 20:16:58.
BEGIN options
END options

BEGIN dimensions
  NLAY  1
  NROW  7
  NCOL  7
END dimensions

BEGIN griddata
  delr
    CONSTANT     100.00000000
  delc
    CONSTANT     100.00000000
  top
    CONSTANT       0.00000000
  botm
    CONSTANT    -100.00000000
  idomain
    INTERNAL  FACTOR  1
    1  1  1  1  1  1  1
    1  1  1  1  1  1  1
    1  1  0  0  0  1  1
    1  1  0  0  0  1  1
    1  1  0  0  0  1  1
    1  1  1  1  1  1  1
    1  1  1  1  1  1  1
END griddata

