# File generated by Flopy version 3.6.0.dev0 on 02/07/2024 at 20:15:35.
BEGIN options
  LENGTH_UNITS  centimeters
END options

BEGIN dimensions
  NLAY  1
  NROW  1
  NCOL  101
END dimensions

BEGIN griddata
  delr
    CONSTANT       0.16000000
  delc
    CONSTANT       0.16000000
  top
    CONSTANT       1.00000000
  botm
    CONSTANT       0.00000000
END griddata

