# File generated by Flopy version 3.6.0.dev0 on 02/07/2024 at 20:15:35.
BEGIN options
END options

BEGIN griddata
  porosity
    CONSTANT       1.95700000
END griddata

