# File generated by Flopy version 3.6.0.dev0 on 02/07/2024 at 20:15:45.
BEGIN options
END options

BEGIN linear
  LINEAR_ACCELERATION  bicgstab
END linear

