# File generated by Flopy version 3.6.0.dev0 on 02/07/2024 at 20:15:45.
BEGIN options
  DIGITS  10
  PRINT_INPUT
END options

BEGIN continuous  FILEOUT  trans.obs.csv
  myobs  CONCENTRATION  1 1 52
END continuous  FILEOUT  trans.obs.csv

