# File generated by Flopy version 3.6.0.dev0 on 02/07/2024 at 20:16:57.
BEGIN options
  READASARRAYS
END options

BEGIN period  1
  recharge
    CONSTANT  3.00000000E-08
END period  1

