# File generated by Flopy version 3.6.0.dev0 on 02/07/2024 at 20:16:56.

BEGIN OPTIONS
END options

BEGIN timing
  TDIS6  ex-gwf-twri01.tdis
END timing

BEGIN models
  gwf6  ex-gwf-twri01.nam  ex-gwf-twri01
END models

BEGIN exchanges
END exchanges

BEGIN solutiongroup  1 # Este comentario 
  ims6  ex-gwf-twri01.ims  ex-gwf-twri01  
END solutiongroup  1