# File generated by Flopy version 3.6.0.dev0 on 02/07/2024 at 20:15:12.
BEGIN options
  SAVE_FLOWS
END options

BEGIN packages
  DIS6  child.dis  dis
  NPF6  child.npf  npf
  IC6  child.ic  ic
  RIV6  child.riv  riv
  RCH6  child.rcha  rch
  OC6  child.oc  oc
END packages

