# File generated by Flopy version 3.6.0.dev0 on 02/07/2024 at 20:15:13.
BEGIN options
  READASARRAYS
END options

BEGIN period  1
  recharge
    CONSTANT  1.10980000E-09
END period  1

