# File generated by Flopy version 3.6.0.dev0 on 02/07/2024 at 20:15:34.
BEGIN options
END options

BEGIN dimensions
  MAXBOUND  2
END dimensions

BEGIN period  1
  1 1 1 6.00000000E+01
  1 1 101 0.00000000E+00
END period  1

