# File generated by Flopy version 3.6.0.dev0 on 02/07/2024 at 20:15:34.
BEGIN options
END options

BEGIN dimensions
  MAXBOUND  1
END dimensions

BEGIN period  1
  1 1 1       1.00000000
END period  1

