# File generated by Flopy version 3.6.0.dev0 on 02/07/2024 at 20:15:08.
BEGIN options
END options

BEGIN timing
  TDIS6  ex-gwf-lgrv-gc.tdis
END timing

BEGIN models
  gwf6  parent.nam  parent
END models

BEGIN exchanges
END exchanges

BEGIN solutiongroup  1
  ims6  ex-gwf-lgrv-gc.ims  parent
END solutiongroup  1

