# File generated by Flopy version 3.6.0.dev0 on 02/07/2024 at 20:15:30.
BEGIN options
  FIRST_ORDER_DECAY
END options

BEGIN griddata
  porosity
    CONSTANT       0.10000000
  decay
    CONSTANT       0.01000000
END griddata

