# File generated by Flopy version 3.6.0.dev0 on 02/07/2024 at 20:15:18.
BEGIN options
  HEAD  FILEOUT  ex-gwf-nwt-p02.hds
END options

BEGIN period  1
  SAVE  HEAD  LAST
END period  1

