# File generated by Flopy version 3.6.0.dev0 on 02/07/2024 at 20:15:25.
BEGIN options
  TIME_UNITS  seconds
END options

BEGIN dimensions
  NPER  1
END dimensions

BEGIN perioddata
  1.29600000E+07  1       1.00000000
END perioddata

