# File generated by Flopy version 3.6.0.dev0 on 02/07/2024 at 20:15:25.
BEGIN options
END options

BEGIN timing
  TDIS6  gwf-hecht-mendez.tdis
END timing

BEGIN models
  gwf6  gwf-hecht-mendez.nam  gwf-hecht-mendez
END models

BEGIN exchanges
END exchanges

BEGIN solutiongroup  1
  ims6  gwf-hecht-mendez.ims  gwf-hecht-mendez
END solutiongroup  1

