# File generated by Flopy version 3.6.0.dev0 on 02/07/2024 at 20:15:20.
BEGIN options
END options

BEGIN continuous  FILEOUT  ex-gwf-rad-disu.obs.head.csv
  h_top  head  12
  h_mid  head  276
  h_bot  head  540
END continuous  FILEOUT  ex-gwf-rad-disu.obs.head.csv

