# File generated by Flopy version 3.6.0.dev0 on 02/07/2024 at 20:15:20.
BEGIN options
  TIME_UNITS  days
END options

BEGIN dimensions
  NPER  1
END dimensions

BEGIN perioddata
      10.00000000  24       1.62000000
END perioddata

