# File generated by Flopy version 3.6.0.dev0 on 02/07/2024 at 20:15:20.
BEGIN options
  SAVE_FLOWS
  SAVE_SPECIFIC_DISCHARGE
END options

BEGIN griddata
  icelltype
    CONSTANT  0
  k
    CONSTANT      20.00000000
  k33
    CONSTANT      20.00000000
END griddata

