# File generated by Flopy version 3.6.0.dev0 on 02/07/2024 at 20:15:20.
BEGIN options
  SAVE_FLOWS
END options

BEGIN griddata
  iconvert
    CONSTANT  1
  ss
    CONSTANT  1.00000000E-05
  sy
    CONSTANT       0.10000000
END griddata

