# File generated by Flopy version 3.6.0.dev0 on 02/07/2024 at 20:15:20.
BEGIN options
  SAVE_FLOWS
END options

BEGIN packages
  DISU6  ex-gwf-rad-disu.disu  disu
  NPF6  ex-gwf-rad-disu.npf  npf
  STO6  ex-gwf-rad-disu.sto  sto
  IC6  ex-gwf-rad-disu.ic  ic
  WEL6  ex-gwf-rad-disu.wel  wel_0
  OC6  ex-gwf-rad-disu.oc  oc
  OBS6  ex-gwf-rad-disu.obs  obs_0
END packages

