# File generated by Flopy version 3.6.0.dev0 on 02/07/2024 at 20:15:20.
BEGIN options
END options

BEGIN timing
  TDIS6  ex-gwf-rad-disu.tdis
END timing

BEGIN models
  gwf6  ex-gwf-rad-disu.nam  ex-gwf-rad-disu
END models

BEGIN exchanges
END exchanges

BEGIN solutiongroup  1
  ims6  ex-gwf-rad-disu.ims  ex-gwf-rad-disu
END solutiongroup  1

