# File generated by Flopy version 3.6.0.dev0 on 02/07/2024 at 20:15:28.
BEGIN options
  auxiliary  CONCENTRATION
END options

BEGIN dimensions
  MAXBOUND  40
END dimensions

BEGIN period  1
  1 1 80 1.00000000E+00 1.72800000E+03 3.50000000E+01
  2 1 80 1.00000000E+00 1.72800000E+03 3.50000000E+01
  3 1 80 1.00000000E+00 1.72800000E+03 3.50000000E+01
  4 1 80 1.00000000E+00 1.72800000E+03 3.50000000E+01
  5 1 80 1.00000000E+00 1.72800000E+03 3.50000000E+01
  6 1 80 1.00000000E+00 1.72800000E+03 3.50000000E+01
  7 1 80 1.00000000E+00 1.72800000E+03 3.50000000E+01
  8 1 80 1.00000000E+00 1.72800000E+03 3.50000000E+01
  9 1 80 1.00000000E+00 1.72800000E+03 3.50000000E+01
  10 1 80 1.00000000E+00 1.72800000E+03 3.50000000E+01
  11 1 80 1.00000000E+00 1.72800000E+03 3.50000000E+01
  12 1 80 1.00000000E+00 1.72800000E+03 3.50000000E+01
  13 1 80 1.00000000E+00 1.72800000E+03 3.50000000E+01
  14 1 80 1.00000000E+00 1.72800000E+03 3.50000000E+01
  15 1 80 1.00000000E+00 1.72800000E+03 3.50000000E+01
  16 1 80 1.00000000E+00 1.72800000E+03 3.50000000E+01
  17 1 80 1.00000000E+00 1.72800000E+03 3.50000000E+01
  18 1 80 1.00000000E+00 1.72800000E+03 3.50000000E+01
  19 1 80 1.00000000E+00 1.72800000E+03 3.50000000E+01
  20 1 80 1.00000000E+00 1.72800000E+03 3.50000000E+01
  21 1 80 1.00000000E+00 1.72800000E+03 3.50000000E+01
  22 1 80 1.00000000E+00 1.72800000E+03 3.50000000E+01
  23 1 80 1.00000000E+00 1.72800000E+03 3.50000000E+01
  24 1 80 1.00000000E+00 1.72800000E+03 3.50000000E+01
  25 1 80 1.00000000E+00 1.72800000E+03 3.50000000E+01
  26 1 80 1.00000000E+00 1.72800000E+03 3.50000000E+01
  27 1 80 1.00000000E+00 1.72800000E+03 3.50000000E+01
  28 1 80 1.00000000E+00 1.72800000E+03 3.50000000E+01
  29 1 80 1.00000000E+00 1.72800000E+03 3.50000000E+01
  30 1 80 1.00000000E+00 1.72800000E+03 3.50000000E+01
  31 1 80 1.00000000E+00 1.72800000E+03 3.50000000E+01
  32 1 80 1.00000000E+00 1.72800000E+03 3.50000000E+01
  33 1 80 1.00000000E+00 1.72800000E+03 3.50000000E+01
  34 1 80 1.00000000E+00 1.72800000E+03 3.50000000E+01
  35 1 80 1.00000000E+00 1.72800000E+03 3.50000000E+01
  36 1 80 1.00000000E+00 1.72800000E+03 3.50000000E+01
  37 1 80 1.00000000E+00 1.72800000E+03 3.50000000E+01
  38 1 80 1.00000000E+00 1.72800000E+03 3.50000000E+01
  39 1 80 1.00000000E+00 1.72800000E+03 3.50000000E+01
  40 1 80 1.00000000E+00 1.72800000E+03 3.50000000E+01
END period  1

