# File generated by Flopy version 3.6.0.dev0 on 02/07/2024 at 20:15:28.
BEGIN griddata
  strt
    CONSTANT      35.00000000
END griddata

