# File generated by Flopy version 3.6.0.dev0 on 02/07/2024 at 20:15:28.
BEGIN options
END options

BEGIN timing
  TDIS6  flow.tdis
END timing

BEGIN models
  gwf6  flow.nam  flow
  gwt6  trans.nam  trans
END models

BEGIN exchanges
  GWF6-GWT6  flow.gwfgwt  flow  trans
END exchanges

BEGIN solutiongroup  1
  ims6  flow.ims  flow
  ims6  trans.ims  trans
END solutiongroup  1

