# File generated by Flopy version 3.6.0.dev0 on 02/07/2024 at 20:15:41.
BEGIN options
  auxiliary  CONCENTRATION
  PRINT_INPUT
  PRINT_FLOWS
END options

BEGIN dimensions
  MAXBOUND  1
END dimensions

BEGIN period  1
  7 8 3 5.00000000E-01 1.00000000E+02
END period  1

