# File generated by Flopy version 3.6.0.dev0 on 02/07/2024 at 20:15:41.
BEGIN options
  SAVE_FLOWS
END options

BEGIN packages
  DIS6  gwt-p07-mf6.dis  dis
  IC6  gwt-p07-mf6.ic  ic
  ADV6  gwt-p07-mf6.adv  adv
  DSP6  gwt-p07-mf6.dsp  dsp
  MST6  gwt-p07-mf6.mst  mst
  SSM6  gwt-p07-mf6.ssm  ssm
  OC6  gwt-p07-mf6.oc  oc
END packages

