# File generated by Flopy version 3.6.0.dev0 on 02/07/2024 at 20:15:41.
BEGIN options
END options

BEGIN timing
  TDIS6  ex-gwt-mt3dms-p07.tdis
END timing

BEGIN models
  gwf6  gwf-p07-mf6.nam  gwf-p07-mf6
  gwt6  gwt-p07-mf6.nam  gwt-p07-mf6
END models

BEGIN exchanges
  GWF6-GWT6  p07-mf6.gwfgwt  gwf-p07-mf6  gwt-p07-mf6
END exchanges

BEGIN solutiongroup  1
  ims6  gwf-p07-mf6.ims  gwf-p07-mf6
  ims6  gwt-p07-mf6.ims  gwt-p07-mf6
END solutiongroup  1

