# File generated by Flopy version 3.6.0.dev0 on 02/07/2024 at 20:15:14.
BEGIN griddata
  strt  LAYERED
    CONSTANT       3.05000000
    CONSTANT       9.14000000
END griddata

