# File generated by Flopy version 3.6.0.dev0 on 02/07/2024 at 20:15:14.
BEGIN options
END options

BEGIN timing
  TDIS6  ex-gwf-maw-p01.tdis
END timing

BEGIN models
  gwf6  ex-gwf-maw-p01.nam  ex-gwf-maw-p01
END models

BEGIN exchanges
END exchanges

BEGIN solutiongroup  1
  ims6  ex-gwf-maw-p01.ims  ex-gwf-maw-p01
END solutiongroup  1

