# File generated by Flopy version 3.6.0.dev0 on 02/07/2024 at 20:15:43.
BEGIN options
END options

BEGIN dimensions
  MAXBOUND  3
END dimensions

BEGIN period  1
  1 43 80 1.92500000E+03
  1 44 80 1.92500000E+03
  1 45 80 1.92500000E+03
END period  1

