# File generated by Flopy version 3.6.0.dev0 on 02/07/2024 at 20:15:43.
BEGIN options
  ALTERNATIVE_CELL_AVERAGING  amt-hmk
END options

BEGIN griddata
  icelltype
    CONSTANT  1
  k
    INTERNAL  FACTOR  1.0
         0.00000000       0.00000000       0.00000000       0.00000000       0.00000000       0.00000000       0.00000000       0.00000000       0.00000000       0.00000000       0.00000000       0.00000000       0.00000000       0.00000000       0.00000000       0.00000000       0.00000000       0.00000000       0.00000000       0.00000000       0.00000000       0.00000000       0.00000000       0.00000000       0.00000000       0.00000000       0.00000000       0.00000000       0.00000000       0.00000000       0.00000000       0.00000000       0.00000000       0.00000000       0.00000000       0.00000000       0.00000000       0.00000000       0.00000000       0.00000000       0.00000000       0.00000000       0.00000000       0.00000000       0.00000000       0.00000000       0.00000000       0.00000000       0.00000000       0.00000000       0.00000000       0.00000000       0.00000000       0.00000000       0.00000000       0.00000000       0.00000000       0.00000000       0.00000000       0.00000000       0.00000000       0.00000000       0.00000000       0.03000000       0.03000000       0.00000000       0.00000000       0.00000000       0.00000000       0.00000000       0.00000000       0.00000000       0.00000000       0.00000000       0.00000000       0.00000000       0.00000000       0.00000000       0.00000000       0.00000000       0.00000000
         0.00000000       0.00000000       0.00000000       0.00000000       0.00000000       0.00000000       0.00000000       0.00000000       0.00000000       0.00000000       0.00000000       0.00000000       0.00000000       0.00000000       0.00000000       0.00000000       0.00000000       0.00000000       0.00000000       0.00000000       0.00000000       0.00000000       0.00000000       0.00000000       0.00000000       0.00000000       0.00000000       0.00000000       0.00000000       0.00000000       0.00000000       0.00000000       0.00000000       0.00000000       0.00000000       0.00000000       0.00000000       0.00000000       0.00000000       0.00000000       0.00000000       0.00000000       0.00000000       0.00000000       0.00000000       0.00000000       0.00000000       0.00000000       0.00000000       0.00000000       0.00000000       0.00000000       0.00000000       0.00000000       0.00000000       0.00000000       0.00000000       0.00000000       0.00000000       0.00000000       0.00000000       0.00000000       0.03000000       0.03000000       0.03000000       0.00000000       0.00000000       0.00000000       0.00000000       0.00000000       0.00000000       0.00000000       0.00000000       0.00000000       0.00000000       0.00000000       0.00000000       0.00000000       0.00000000       0.00000000       0.00000000
         0.00000000       0.00000000       0.00000000       0.00000000       0.00000000       0.00000000       0.00000000       0.00000000       0.00000000       0.00000000       0.00000000       0.00000000       0.00000000       0.00000000       0.00000000       0.00000000       0.00000000       0.00000000       0.00000000       0.00000000       0.00000000       0.00000000       0.00000000       0.00000000       0.00000000       0.00000000       0.00000000       0.00000000       0.00000000       0.00000000       0.00000000       0.00000000       0.00000000       0.00000000       0.00000000       0.00000000       0.00000000       0.00000000       0.00000000       0.00000000       0.00000000       0.00000000       0.00000000       0.00000000       0.00000000       0.00000000       0.00000000       0.00000000       0.00000000       0.00000000       0.00000000       0.00000000       0.00000000       0.00000000       0.00000000       0.00000000       0.00000000       0.00000000       0.00000000       0.00000000       0.00000000       0.00000000       0.03000000       0.03000000       0.10000000       0.00000000       0.00000000       0.00000000       0.00000000       0.00000000       0.00000000       0.00000000       0.00000000       0.00000000       0.00000000       0.00000000       0.00000000       0.00000000       0.00000000       0.00000000       0.00000000
         0.00000000       0.00000000       0.00000000       0.00000000       0.00000000       0.00000000       0.00000000       0.00000000       0.00000000       0.00000000       0.00000000       0.00000000       0.00000000       0.00000000       0.00000000       0.00000000       0.00000000       0.00000000       0.00000000       0.00000000       0.00000000       0.00000000       0.00000000       0.00000000       0.00000000       0.00000000       0.00000000       0.00000000       0.00000000       0.00000000       0.00000000       0.00000000       0.00000000       0.00000000       0.00000000       0.00000000       0.00000000       0.00000000       0.00000000       0.00000000       0.00000000       0.00000000       0.00000000       0.00000000       0.00000000       0.00000000       0.00000000       0.00000000       0.00000000       0.00000000       0.00000000       0.00000000       0.00000000       0.00000000       0.00000000       0.00000000       0.00000000       0.00000000       0.00000000       0.00000000       0.00000000       0.03000000       0.03000000       0.03000000       0.10000000       0.00000000       0.00000000       0.00000000       0.00000000       0.00000000       0.00000000       0.00000000       0.00000000       0.00000000       0.00000000       0.00000000       0.00000000       0.00000000       0.00000000       0.00000000       0.00000000
         0.00000000       0.00000000       0.00000000       0.00000000       0.00000000       0.00000000       0.00000000       0.00000000       0.00000000       0.00000000       0.00000000       0.00000000       0.00000000       0.00000000       0.00000000       0.00000000       0.00000000       0.00000000       0.00000000       0.00000000       0.00000000       0.00000000       0.00000000       0.00000000       0.00000000       0.00000000       0.00000000       0.00000000       0.00000000       0.00000000       0.00000000       0.00000000       0.00000000       0.00000000       0.00000000       0.00000000       0.00000000       0.00000000       0.00000000       0.00000000       0.00000000       0.00000000       0.00000000       0.00000000       0.00000000       0.00000000       0.00000000       0.00000000       0.00000000       0.00000000       0.00000000       0.00000000       0.00000000       0.00000000       0.00000000       0.00000000       0.00000000       0.00000000       0.00000000       0.00000000       0.00000000       0.03000000       0.03000000       0.03000000       0.10000000       0.03000000       0.00000000       0.00000000       0.00000000       0.00000000       0.00000000       0.00000000       0.00000000       0.00000000       0.00000000       0.00000000       0.00000000       0.00000000       0.00000000       0.00000000       0.00000000
         0.00000000       0.00000000       0.00000000       0.00000000       0.00000000       0.00000000       0.00000000       0.00000000       0.00000000       0.00000000       0.00000000       0.00000000       0.00000000       0.00000000       0.00000000       0.00000000       0.00000000       0.00000000       0.00000000       0.00000000       0.00000000       0.00000000       0.00000000       0.00000000       0.00000000       0.00000000       0.00000000       0.00000000       0.00000000       0.00000000       0.00000000       0.00000000       0.00000000       0.00000000       0.00000000       0.00000000       0.00000000       0.00000000       0.00000000       0.00000000       0.00000000       0.00000000       0.00000000       0.00000000       0.00000000       0.00000000       0.00000000       0.00000000       0.00000000       0.00000000       0.00000000       0.00000000       0.00000000       0.00000000       0.00000000       0.00000000       0.00000000       0.00000000       0.00000000       0.00000000       0.00000000       0.03000000       0.03000000       0.03000000       0.10000000       0.10000000       0.03000000       0.00000000       0.00000000       0.00000000       0.00000000       0.00000000       0.00000000       0.00000000       0.00000000       0.00000000       0.00000000       0.00000000       0.00000000       0.00000000       0.00000000
         0.00000000       0.00000000       0.00000000       0.00000000       0.00000000       0.00000000       0.00000000       0.00000000       0.00000000       0.00000000       0.00000000       0.00000000       0.00000000       0.00000000       0.00000000       0.00000000       0.00000000       0.00000000       0.00000000       0.00000000       0.00000000       0.00000000       0.00000000       0.00000000       0.00000000       0.00000000       0.00000000       0.00000000       0.00000000       0.00000000       0.00000000       0.00000000       0.00000000       0.00000000       0.00000000       0.00000000       0.00000000       0.00000000       0.00000000       0.00000000       0.00000000       0.00000000       0.00000000       0.00000000       0.00000000       0.00000000       0.00000000       0.00000000       0.00000000       0.00000000       0.00000000       0.00000000       0.00000000       0.00000000       0.00000000       0.00000000       0.00000000       0.00000000       0.00000000       0.00000000       0.03000000       0.03000000       0.03000000       0.03000000       0.10000000       0.10000000       0.10000000       0.03000000       0.00000000       0.00000000       0.00000000       0.00000000       0.00000000       0.00000000       0.00000000       0.00000000       0.00000000       0.00000000       0.00000000       0.00000000       0.00000000
         0.00000000       0.00000000       0.00000000       0.00000000       0.00000000       0.00000000       0.00000000       0.00000000       0.00000000       0.00000000       0.00000000       0.00000000       0.00000000       0.00000000       0.00000000       0.00000000       0.00000000       0.00000000       0.00000000       0.00000000       0.00000000       0.00000000       0.00000000       0.00000000       0.00000000       0.00000000       0.00000000       0.00000000       0.00000000       0.00000000       0.00000000       0.00000000       0.00000000       0.00000000       0.00000000       0.00000000       0.00000000       0.00000000       0.00000000       0.00000000       0.00000000       0.00000000       0.00000000       0.00000000       0.00000000       0.00000000       0.00000000       0.00000000       0.00000000       0.00000000       0.00000000       0.00000000       0.00000000       0.00000000       0.00000000       0.00000000       0.00000000       0.00000000       0.00000000       0.00000000       0.03000000       0.03000000       0.03000000       0.03000000       0.10000000       0.10000000       0.10000000       0.03000000       0.03000000       0.03000000       0.03000000       0.00000000       0.00000000       0.00000000       0.00000000       0.00000000       0.00000000       0.00000000       0.00000000       0.00000000       0.00000000
         0.00000000       0.00000000       0.00000000       0.00000000       0.00000000       0.00000000       0.00000000       0.00000000       0.00000000       0.00000000       0.00000000       0.00000000       0.00000000       0.00000000       0.00000000       0.00000000       0.00000000       0.00000000       0.00000000       0.00000000       0.00000000       0.00000000       0.00000000       0.00000000       0.00000000       0.00000000       0.00000000       0.00000000       0.00000000       0.00000000       0.00000000       0.00000000       0.00000000       0.00000000       0.00000000       0.00000000       0.00000000       0.00000000       0.00000000       0.00000000       0.00000000       0.00000000       0.00000000       0.00000000       0.00000000       0.00000000       0.00000000       0.00000000       0.01000000       0.01000000       0.00000000       0.00000000       0.00000000       0.00000000       0.00000000       0.00000000       0.00000000       0.00000000       0.03000000       0.03000000       0.03000000       0.03000000       0.03000000       0.03000000       0.10000000       0.10000000       0.10000000       0.03000000       0.03000000       0.03000000       0.03000000       0.03000000       0.03000000       0.03000000       0.03000000       0.00000000       0.00000000       0.00000000       0.00000000       0.00000000       0.00000000
         0.00000000       0.00000000       0.00000000       0.00000000       0.00000000       0.00000000       0.00000000       0.00000000       0.00000000       0.00000000       0.00000000       0.00000000       0.00000000       0.00000000       0.00000000       0.00000000       0.00000000       0.00000000       0.00000000       0.00000000       0.00000000       0.00000000       0.00000000       0.00000000       0.00000000       0.00000000       0.00000000       0.00000000       0.00000000       0.00000000       0.00000000       0.00000000       0.00000000       0.00000000       0.00000000       0.00000000       0.00000000       0.00000000       0.00000000       0.00000000       0.00000000       0.00000000       0.00000000       0.00000000       0.00000000       0.00000000       0.00000000       0.01000000       0.01000000       0.01000000       0.01000000       0.01000000       0.01000000       0.00000000       0.00000000       0.00000000       0.01000000       0.03000000       0.03000000       0.03000000       0.03000000       0.03000000       0.03000000       0.03000000       0.10000000       0.10000000       0.10000000       0.03000000       0.03000000       0.03000000       0.03000000       0.03000000       0.03000000       0.03000000       0.03000000       0.03000000       0.00000000       0.00000000       0.00000000       0.00000000       0.00000000
         0.00000000       0.00000000       0.00000000       0.00000000       0.00000000       0.00000000       0.00000000       0.00000000       0.00000000       0.00000000       0.00000000       0.00000000       0.00000000       0.00000000       0.00000000       0.00000000       0.00000000       0.00000000       0.00000000       0.00000000       0.00000000       0.00000000       0.00000000       0.00000000       0.00000000       0.00000000       0.00000000       0.00000000       0.00000000       0.00000000       0.00000000       0.00000000       0.00000000       0.00000000       0.00000000       0.00000000       0.00000000       0.00000000       0.00000000       0.00000000       0.00000000       0.00000000       0.00000000       0.00000000       0.00000000       0.00000000       0.01000000       0.01000000       0.01000000       0.01000000       0.01000000       0.01000000       0.01000000       0.01000000       0.01000000       0.01000000       0.01000000       0.03000000       0.03000000       0.03000000       0.03000000       0.03000000       0.03000000       0.03000000       0.10000000       0.10000000       0.10000000       0.03000000       0.03000000       0.03000000       0.03000000       0.03000000       0.03000000       0.03000000       0.03000000       0.03000000       0.00000000       0.00000000       0.00000000       0.00000000       0.00000000
         0.00000000       0.00000000       0.00000000       0.00000000       0.00000000       0.00000000       0.00000000       0.00000000       0.00000000       0.00000000       0.00000000       0.00000000       0.00000000       0.00000000       0.00000000       0.00000000       0.00000000       0.00000000       0.00000000       0.00000000       0.00000000       0.00000000       0.00000000       0.00000000       0.00000000       0.00000000       0.00000000       0.00000000       0.00000000       0.00000000       0.00000000       0.00000000       0.00000000       0.00000000       0.00000000       0.00000000       0.00000000       0.00000000       0.00000000       0.00000000       0.00000000       0.00000000       0.00000000       0.00000000       0.00000000       0.00000000       0.01000000       0.01000000       0.01000000       0.03000000       0.03000000       0.03000000       0.03000000       0.03000000       0.03000000       0.03000000       0.03000000       0.03000000       0.03000000       0.03000000       0.03000000       0.03000000       0.03000000       0.03000000       0.10000000       0.10000000       0.10000000       0.03000000       0.03000000       0.03000000       0.03000000       0.03000000       0.03000000       0.03000000       0.03000000       0.03000000       0.03000000       0.00000000       0.00000000       0.00000000       0.00000000
         0.00000000       0.00000000       0.00000000       0.00000000       0.00000000       0.00000000       0.00000000       0.00000000       0.00000000       0.00000000       0.00000000       0.00000000       0.00000000       0.00000000       0.00000000       0.00000000       0.00000000       0.00000000       0.00000000       0.00000000       0.00000000       0.00000000       0.00000000       0.00000000       0.00000000       0.00000000       0.00000000       0.00000000       0.00000000       0.00000000       0.00000000       0.00000000       0.00000000       0.00000000       0.00000000       0.00000000       0.00000000       0.00000000       0.00000000       0.00000000       0.00000000       0.00000000       0.00000000       0.00000000       0.01000000       0.01000000       0.01000000       0.01000000       0.01000000       0.03000000       0.03000000       0.03000000       0.03000000       0.03000000       0.03000000       0.03000000       0.03000000       0.03000000       0.03000000       0.03000000       0.03000000       0.03000000       0.03000000       0.03000000       0.10000000       0.10000000       0.10000000       0.03000000       0.03000000       0.03000000       0.03000000       0.03000000       0.03000000       0.03000000       0.03000000       0.03000000       0.03000000       0.03000000       0.00000000       0.00000000       0.00000000
         0.00000000       0.00000000       0.00000000       0.00000000       0.00000000       0.00000000       0.00000000       0.00000000       0.00000000       0.00000000       0.00000000       0.00000000       0.00000000       0.00000000       0.00000000       0.00000000       0.00000000       0.00000000       0.00000000       0.00000000       0.00000000       0.00000000       0.00000000       0.00000000       0.00000000       0.00000000       0.00000000       0.00000000       0.00000000       0.00000000       0.00000000       0.00000000       0.00000000       0.00000000       0.00000000       0.00000000       0.00000000       0.00000000       0.00000000       0.00000000       0.00000000       0.01000000       0.01000000       0.01000000       0.01000000       0.01000000       0.01000000       0.01000000       0.01000000       0.03000000       0.03000000       0.03000000       0.03000000       0.03000000       0.03000000       0.03000000       0.03000000       0.03000000       0.03000000       0.03000000       0.03000000       0.03000000       0.03000000       0.03000000       0.10000000       0.10000000       0.10000000       0.03000000       0.03000000       0.03000000       0.03000000       0.03000000       0.03000000       0.03000000       0.03000000       0.03000000       0.03000000       0.03000000       0.03000000       0.00000000       0.00000000
         0.00000000       0.00000000       0.00000000       0.00000000       0.00000000       0.00000000       0.00000000       0.00000000       0.00000000       0.00000000       0.00000000       0.00000000       0.00000000       0.00000000       0.00000000       0.00000000       0.00000000       0.00000000       0.00000000       0.00000000       0.00000000       0.00000000       0.00000000       0.00000000       0.00000000       0.00000000       0.00000000       0.00000000       0.00000000       0.00000000       0.00000000       0.00000000       0.00000000       0.00000000       0.00000000       0.00000000       0.00000000       0.00000000       0.00000000       0.00000000       0.00500000       0.00500000       0.01000000       0.01000000       0.01000000       0.01000000       0.01000000       0.01000000       0.01000000       0.01000000       0.01000000       0.03000000       0.03000000       0.03000000       0.03000000       0.03000000       0.03000000       0.03000000       0.03000000       0.03000000       0.03000000       0.03000000       0.03000000       0.03000000       0.10000000       0.10000000       0.10000000       0.03000000       0.03000000       0.03000000       0.03000000       0.03000000       0.03000000       0.03000000       0.03000000       0.03000000       0.03000000       0.03000000       0.03000000       0.03000000       0.00000000
         0.00000000       0.00000000       0.00000000       0.00000000       0.00000000       0.00000000       0.00000000       0.00000000       0.00000000       0.00000000       0.00000000       0.00000000       0.00000000       0.00000000       0.00000000       0.00000000       0.00000000       0.00000000       0.00000000       0.00000000       0.00000000       0.00000000       0.00000000       0.00000000       0.00000000       0.00000000       0.00000000       0.00000000       0.00000000       0.00000000       0.00000000       0.00000000       0.00000000       0.00000000       0.00000000       0.00000000       0.00000000       0.00000000       0.00000000       0.00500000       0.00500000       0.00500000       0.01000000       0.01000000       0.01000000       0.01000000       0.01000000       0.01000000       0.01000000       0.01000000       0.01000000       0.01000000       0.03000000       0.03000000       0.03000000       0.03000000       0.03000000       0.03000000       0.03000000       0.03000000       0.03000000       0.03000000       0.03000000       0.03000000       0.10000000       0.10000000       0.10000000       0.03000000       0.03000000       0.03000000       0.03000000       0.03000000       0.03000000       0.03000000       0.03000000       0.03000000       0.03000000       0.03000000       0.03000000       0.03000000       0.00000000
         0.00000000       0.00000000       0.00000000       0.00000000       0.00000000       0.00000000       0.00000000       0.00000000       0.00000000       0.00000000       0.00000000       0.00000000       0.00000000       0.00000000       0.00000000       0.00000000       0.00000000       0.00000000       0.00000000       0.00000000       0.00000000       0.00000000       0.00000000       0.00000000       0.00000000       0.00000000       0.00000000       0.00000000       0.00000000       0.00000000       0.00000000       0.00000000       0.00000000       0.00000000       0.00000000       0.00000000       0.00000000       0.00000000       0.00000000       0.00500000       0.00500000       0.00500000       0.00500000       0.01000000       0.01000000       0.01000000       0.01000000       0.01000000       0.01000000       0.01000000       0.01000000       0.01000000       0.03000000       0.03000000       0.03000000       0.03000000       0.03000000       0.03000000       0.03000000       0.03000000       0.03000000       0.03000000       0.03000000       0.03000000       0.10000000       0.10000000       0.10000000       0.10000000       0.10000000       0.10000000       0.10000000       0.10000000       0.10000000       0.10000000       0.10000000       0.10000000       0.10000000       0.03000000       0.03000000       0.03000000       0.00000000
         0.00000000       0.00000000       0.00000000       0.00000000       0.00000000       0.00000000       0.00000000       0.00000000       0.00000000       0.00000000       0.00000000       0.00000000       0.00000000       0.00000000       0.00000000       0.00000000       0.00000000       0.00000000       0.00000000       0.00000000       0.00000000       0.00000000       0.00000000       0.00000000       0.00000000       0.00000000       0.00000000       0.00000000       0.00000000       0.00000000       0.00000000       0.00000000       0.00000000       0.00000000       0.00000000       0.00000000       0.00000000       0.00000000       0.00000000       0.00500000       0.00500000       0.00500000       0.00500000       0.01000000       0.01000000       0.01000000       0.01000000       0.01000000       0.01000000       0.01000000       0.01000000       0.01000000       0.03000000       0.03000000       0.03000000       0.03000000       0.03000000       0.03000000       0.03000000       0.03000000       0.03000000       0.03000000       0.03000000       0.03000000       0.10000000       0.10000000       0.10000000       0.10000000       0.10000000       0.10000000       0.10000000       0.10000000       0.10000000       0.10000000       0.10000000       0.10000000       0.10000000       0.03000000       0.03000000       0.03000000       0.00000000
         0.00000000       0.00000000       0.00000000       0.00000000       0.00000000       0.00000000       0.00000000       0.00000000       0.00000000       0.00000000       0.00000000       0.00000000       0.00000000       0.00000000       0.00000000       0.00000000       0.00000000       0.00000000       0.00000000       0.00000000       0.00000000       0.00000000       0.00000000       0.00000000       0.00000000       0.00000000       0.00000000       0.00000000       0.00000000       0.00000000       0.00000000       0.00000000       0.00000000       0.00000000       0.00500000       0.00500000       0.00500000       0.00500000       0.00500000       0.00500000       0.00500000       0.00500000       0.01000000       0.01000000       0.01000000       0.01000000       0.01000000       0.01000000       0.01000000       0.01000000       0.01000000       0.01000000       0.03000000       0.03000000       0.03000000       0.03000000       0.03000000       0.03000000       0.03000000       0.03000000       0.03000000       0.03000000       0.03000000       0.03000000       0.10000000       0.10000000       0.10000000       0.10000000       0.10000000       0.10000000       0.10000000       0.10000000       0.10000000       0.10000000       0.10000000       0.10000000       0.10000000       0.03000000       0.03000000       0.03000000       0.03000000
         0.00000000       0.00000000       0.00000000       0.00000000       0.00000000       0.00000000       0.00000000       0.00000000       0.00000000       0.00000000       0.00000000       0.00000000       0.00000000       0.00000000       0.00000000       0.00000000       0.00000000       0.00000000       0.00000000       0.00000000       0.00000000       0.00000000       0.00000000       0.00000000       0.00000000       0.00000000       0.00000000       0.00000000       0.00000000       0.00000000       0.00000000       0.00000000       0.00500000       0.00500000       0.00500000       0.00500000       0.00500000       0.00500000       0.00500000       0.00500000       0.00500000       0.01000000       0.01000000       0.01000000       0.01000000       0.01000000       0.01000000       0.01000000       0.01000000       0.01000000       0.01000000       0.01000000       0.03000000       0.03000000       0.03000000       0.03000000       0.03000000       0.03000000       0.03000000       0.03000000       0.03000000       0.03000000       0.03000000       0.03000000       0.10000000       0.10000000       0.30000000       0.30000000       0.10000000       0.10000000       0.10000000       0.10000000       0.10000000       0.10000000       0.10000000       0.10000000       0.10000000       0.03000000       0.03000000       0.03000000       0.03000000
         0.00000000       0.00000000       0.00000000       0.00000000       0.00000000       0.00000000       0.00000000       0.00000000       0.00000000       0.00000000       0.00000000       0.00000000       0.00000000       0.00000000       0.00000000       0.00000000       0.00000000       0.00000000       0.00000000       0.00000000       0.00000000       0.00000000       0.00000000       0.00000000       0.00000000       0.00000000       0.00000000       0.00000000       0.00000000       0.00500000       0.00500000       0.00500000       0.00500000       0.00500000       0.00500000       0.00500000       0.00500000       0.00500000       0.00500000       0.01000000       0.01000000       0.01000000       0.01000000       0.01000000       0.01000000       0.01000000       0.01000000       0.01000000       0.01000000       0.01000000       0.01000000       0.01000000       0.10000000       0.03000000       0.03000000       0.03000000       0.03000000       0.03000000       0.03000000       0.03000000       0.03000000       0.03000000       0.03000000       0.03000000       0.03000000       0.10000000       0.10000000       0.30000000       0.30000000       0.10000000       0.10000000       0.10000000       0.10000000       0.10000000       0.10000000       0.10000000       0.10000000       0.03000000       0.03000000       0.03000000       0.03000000