# File generated by Flopy version 3.6.0.dev0 on 02/07/2024 at 20:15:43.
BEGIN options
END options

BEGIN timing
  TDIS6  ex-gwf-sagehen.tdis
END timing

BEGIN models
  gwf6  ex-gwf-sagehen.nam  ex-gwf-sagehen
END models

BEGIN exchanges
END exchanges

BEGIN solutiongroup  1
  ims6  ex-gwf-sagehen.ims  ex-gwf-sagehen
END solutiongroup  1

