# File generated by Flopy version 3.6.0.dev0 on 02/07/2024 at 20:15:24.
BEGIN options
  SAVE_FLOWS
END options

BEGIN packages
  DIS6  gwf-inner.dis  dis
  IC6  gwf-inner.ic  ic
  NPF6  gwf-inner.npf  npf
  STO6  gwf-inner.sto  sto
  RCH6  gwf-inner.rch  rch-1
  WEL6  gwf-inner.wel  wel-1
  OC6  gwf-inner.oc  oc
END packages

