# File generated by Flopy version 3.6.0.dev0 on 02/07/2024 at 20:15:24.
BEGIN options
  BUDGET  FILEOUT  gwt-outer.cbc
  CONCENTRATION  FILEOUT  gwt-outer.ucn
  CONCENTRATION  PRINT_FORMAT  COLUMNS  10  WIDTH  15  DIGITS  6  GENERAL
END options

BEGIN period  1
  SAVE  CONCENTRATION  LAST
  SAVE  CONCENTRATION  STEPS  1  250  375  500
  SAVE  BUDGET  LAST
  PRINT  CONCENTRATION  LAST
  PRINT  BUDGET  LAST
END period  1

