# File generated by Flopy version 3.6.0.dev0 on 02/07/2024 at 20:15:24.
BEGIN options
  PRINT_FLOWS
END options

BEGIN sources
END sources

