# File generated by Flopy version 3.6.0.dev0 on 02/07/2024 at 20:14:49.
BEGIN options
  SAVE_FLOWS
  NEWTON  UNDER_RELAXATION
END options

BEGIN packages
  DIS6  ex-gwf-bump.dis  dis
  NPF6  ex-gwf-bump.npf  npf
  IC6  ex-gwf-bump.ic  ic
  CHD6  ex-gwf-bump.chd  chd_0
  OC6  ex-gwf-bump.oc  oc
END packages

