# File generated by Flopy version 3.6.0.dev0 on 02/07/2024 at 20:16:58.
BEGIN options
  SAVE_FLOWS
END options

BEGIN packages
  DIS6  outer.dis  dis
  NPF6  outer.npf  npf
  IC6  outer.ic  ic
  CHD6  outer.left.chd  chd-left
  CHD6  outer.right.chd  chd-right
  OC6  outer.oc  oc
END packages

