# File generated by Flopy version 3.6.0.dev0 on 02/07/2024 at 20:16:18.
BEGIN options
  CONCENTRATION  FILEOUT  trans.ucn
END options

BEGIN period  1
  SAVE  CONCENTRATION  LAST
  PRINT  BUDGET  ALL
END period  1

