# File generated by Flopy version 3.6.0.dev0 on 02/07/2024 at 20:16:17.
BEGIN options
END options

BEGIN packages
  DISV6  trans.disv  disv
  IC6  trans.ic  ic
  ADV6  trans.adv  adv
  DSP6  trans.dsp  dsp
  MST6  trans.mst  mst
  FMI6  trans.fmi  fmi
  SSM6  trans.ssm  ssm
  OC6  trans.oc  oc
END packages

