# File generated by Flopy version 3.6.0.dev0 on 02/07/2024 at 20:16:18.
BEGIN options
END options

BEGIN griddata
  diffc
    CONSTANT       0.00000000
  alh
    CONSTANT      75.00000000
  ath1
    CONSTANT       7.50000000
END griddata

