# File generated by Flopy version 3.6.0.dev0 on 02/07/2024 at 20:16:18.
BEGIN options
  SCHEME  tvd
END options

