# File generated by Flopy version 3.6.0.dev0 on 02/07/2024 at 20:16:18.
BEGIN options
END options

BEGIN griddata
  porosity  LAYERED
    INTERNAL  FACTOR  1.0
           0.20000000       0.20000000       0.20000000       0.20000000       0.20000000       0.20000000       0.20000000       0.20000000       0.20000000       0.20000000       0.20000000       0.20000000       0.20000000       0.20000000       0.20000000       0.20000000       0.20000000       0.20000000       0.20000000       0.20000000
           0.20000000       0.20000000       0.20000000       0.20000000       0.20000000       0.20000000       0.20000000       0.20000000       0.20000000       0.20000000       0.20000000       0.20000000       0.20000000       0.20000000       0.20000000       0.20000000       0.20000000       0.20000000       0.20000000       0.20000000
           0.20000000       0.20000000       0.20000000       0.40000000       0.40000000       0.40000000       0.40000000       0.40000000       0.40000000       0.40000000       0.40000000       0.40000000       0.40000000       0.40000000       0.40000000       0.40000000       0.40000000       0.40000000       0.40000000       0.40000000
           0.40000000       0.40000000       0.40000000       0.40000000       0.40000000       0.40000000       0.40000000       0.40000000       0.40000000       0.40000000       0.40000000       0.40000000       0.40000000       0.40000000       0.40000000       0.40000000       0.40000000       0.40000000       0.40000000       0.40000000
           0.40000000       0.40000000       0.40000000       0.40000000       0.40000000       0.40000000       0.40000000       0.40000000       0.40000000       0.40000000       0.40000000       0.40000000       0.20000000       0.20000000       0.20000000       0.20000000       0.20000000       0.20000000       0.20000000       0.20000000
           0.20000000       0.20000000       0.20000000       0.20000000       0.20000000       0.20000000       0.20000000       0.20000000       0.20000000       0.20000000       0.20000000       0.20000000       0.20000000       0.20000000       0.20000000       0.20000000       0.20000000       0.20000000       0.20000000       0.20000000
           0.20000000       0.20000000       0.20000000       0.20000000       0.20000000       0.20000000       0.20000000       0.20000000       0.20000000       0.20000000       0.20000000       0.20000000       0.20000000       0.20000000       0.20000000       0.20000000       0.20000000       0.20000000       0.20000000       0.20000000
           0.20000000       0.20000000       0.20000000       0.20000000       0.20000000       0.20000000       0.20000000       0.20000000       0.20000000       0.20000000       0.20000000       0.20000000       0.20000000       0.20000000       0.20000000       0.20000000       0.20000000       0.20000000       0.20000000       0.20000000
           0.20000000       0.20000000       0.20000000       0.20000000       0.20000000       0.20000000       0.20000000       0.20000000       0.20000000       0.20000000       0.20000000       0.20000000       0.20000000       0.20000000       0.20000000       0.20000000       0.20000000       0.20000000       0.20000000       0.20000000
           0.20000000       0.20000000       0.20000000       0.20000000       0.20000000       0.20000000       0.20000000       0.20000000       0.20000000       0.20000000       0.20000000       0.20000000       0.20000000       0.20000000       0.20000000       0.20000000       0.20000000       0.20000000       0.20000000       0.20000000
           0.20000000       0.20000000       0.20000000       0.20000000       0.20000000       0.20000000       0.20000000       0.20000000       0.20000000       0.20000000       0.20000000       0.20000000       0.20000000       0.20000000       0.20000000       0.20000000       0.20000000       0.20000000       0.20000000       0.20000000
           0.20000000       0.20000000       0.20000000       0.20000000       0.20000000       0.20000000       0.20000000       0.20000000       0.20000000       0.20000000       0.20000000       0.20000000       0.20000000       0.20000000       0.20000000       0.20000000       0.20000000       0.20000000       0.20000000       0.20000000
           0.20000000       0.20000000       0.20000000       0.20000000       0.20000000       0.20000000       0.20000000       0.20000000       0.20000000       0.20000000       0.20000000       0.20000000       0.20000000       0.20000000       0.20000000       0.20000000       0.20000000       0.20000000       0.20000000       0.20000000
           0.20000000       0.20000000       0.20000000       0.20000000       0.20000000       0.20000000       0.20000000       0.20000000       0.20000000       0.20000000       0.20000000       0.20000000       0.20000000       0.20000000       0.20000000       0.20000000       0.20000000       0.20000000       0.20000000       0.20000000
           0.20000000       0.20000000       0.20000000       0.20000000       0.20000000       0.20000000       0.20000000       0.20000000       0.20000000       0.20000000       0.20000000       0.20000000       0.20000000       0.20000000       0.20000000       0.20000000       0.20000000       0.20000000       0.20000000       0.20000000
           0.20000000       0.20000000       0.20000000       0.20000000       0.20000000       0.20000000       0.20000000       0.20000000       0.20000000       0.20000000       0.20000000       0.20000000       0.20000000       0.20000000       0.20000000       0.20000000       0.20000000       0.20000000       0.20000000       0.20000000
           0.20000000       0.20000000       0.20000000       0.20000000       0.20000000       0.20000000       0.20000000       0.20000000       0.20000000       0.20000000       0.20000000       0.20000000       0.20000000       0.20000000       0.20000000       0.20000000       0.20000000       0.20000000       0.20000000       0.20000000
           0.20000000       0.20000000       0.20000000       0.20000000       0.20000000       0.20000000       0.20000000       0.20000000       0.20000000       0.20000000       0.20000000       0.20000000       0.20000000       0.20000000       0.20000000       0.20000000       0.20000000       0.20000000       0.20000000       0.20000000
           0.20000000       0.20000000       0.20000000       0.20000000       0.20000000       0.20000000       0.20000000       0.20000000       0.20000000       0.20000000       0.20000000       0.20000000       0.20000000       0.20000000       0.20000000       0.20000000       0.20000000       0.20000000       0.20000000       0.20000000
           0.20000000       0.20000000       0.20000000       0.20000000       0.20000000       0.20000000       0.20000000       0.20000000       0.20000000       0.20000000       0.20000000       0.20000000       0.20000000       0.20000000       0.20000000       0.20000000       0.20000000       0.20000000       0.20000000       0.20000000
           0.20000000       0.20000000       0.20000000       0.20000000       0.20000000       0.20000000       0.20000000       0.20000000       0.20000000       0.20000000       0.20000000       0.20000000       0.20000000       0.20000000       0.40000000       0.40000000       0.40000000       0.40000000       0.40000000       0.40000000
           0.40000000       0.40000000       0.40000000       0.40000000       0.40000000       0.40000000       0.40000000       0.40000000       0.40000000       0.40000000       0.40000000       0.40000000       0.40000000       0.40000000       0.40000000       0.40000000       0.40000000       0.40000000       0.40000000       0.40000000
           0.40000000       0.40000000       0.40000000       0.40000000       0.40000000       0.40000000       0.40000000       0.40000000       0.40000000       0.40000000       0.40000000       0.40000000       0.40000000       0.40000000       0.40000000       0.40000000       0.40000000       0.40000000       0.40000000       0.40000000
           0.40000000       0.40000000       0.40000000       0.40000000       0.40000000       0.40000000       0.40000000       0.40000000       0.40000000       0.40000000       0.40000000       0.40000000       0.40000000       0.40000000       0.40000000       0.40000000       0.40000000       0.40000000       0.40000000       0.40000000
           0.40000000       0.40000000       0.40000000       0.40000000       0.40000000       0.40000000       0.40000000       0.40000000       0.40000000       0.40000000       0.40000000       0.40000000       0.40000000       0.40000000       0.40000000       0.40000000       0.40000000       0.40000000       0.40000000       0.40000000
           0.40000000       0.40000000       0.40000000       0.40000000       0.40000000       0.40000000       0.40000000       0.40000000       0.40000000       0.40000000       0.40000000       0.40000000       0.40000000       0.40000000       0.40000000       0.40000000       0.40000000       0.40000000       0.40000000       0.40000000
           0.40000000       0.40000000       0.40000000       0.40000000       0.40000000       0.40000000       0.40000000       0.40000000       0.40000000       0.40000000       0.40000000       0.40000000       0.40000000       0.40000000       0.40000000       0.40000000       0.40000000       0.40000000       0.40000000       0.40000000
           0.40000000       0.40000000       0.40000000       0.40000000       0.40000000       0.40000000       0.40000000       0.40000000       0.40000000       0.40000000       0.40000000       0.40000000       0.40000000       0.40000000       0.40000000       0.40000000       0.40000000       0.40000000       0.40000000       0.40000000
           0.40000000       0.40000000       0.40000000       0.40000000       0.40000000       0.40000000       0.40000000       0.40000000       0.40000000       0.40000000       0.40000000       0.40000000       0.40000000       0.40000000       0.40000000       0.40000000       0.40000000       0.40000000       0.40000000       0.40000000
           0.40000000       0.40000000       0.40000000       0.40000000       0.40000000       0.40000000       0.40000000       0.40000000       0.40000000       0.40000000       0.40000000       0.40000000       0.40000000       0.40000000       0.40000000       0.40000000       0.40000000       0.40000000       0.40000000       0.40000000
           0.40000000       0.40000000       0.40000000       0.40000000       0.40000000       0.40000000       0.40000000       0.40000000       0.40000000       0.40000000       0.40000000       0.40000000       0.40000000       0.40000000       0.40000000       0.40000000       0.40000000       0.40000000       0.40000000       0.40000000
           0.40000000       0.40000000       0.40000000       0.40000000       0.40000000       0.40000000       0.40000000       0.40000000       0.40000000       0.40000000       0.40000000       0.40000000       0.40000000       0.40000000       0.40000000       0.40000000       0.40000000       0.40000000       0.40000000       0.40000000
           0.40000000       0.40000000       0.40000000       0.40000000       0.40000000       0.40000000       0.40000000       0.40000000       0.40000000       0.40000000       0.40000000       0.40000000       0.40000000       0.40000000       0.40000000       0.40000000       0.40000000       0.40000000       0.40000000       0.40000000
           0.40000000       0.20000000       0.20000000       0.20000000       0.20000000       0.20000000       0.20000000       0.20000000       0.20000000       0.20000000       0.20000000       0.20000000       0.20000000       0.20000000       0.20000000       0.20000000       0.20000000       0.20000000       0.20000000       0.20000000
           0.20000000       0.20000000       0.20000000       0.20000000       0.20000000       0.20000000       0.20000000       0.20000000       0.20000000       0.20000000       0.20000000       0.20000000       0.20000000       0.20000000       0.20000000       0.20000000       0.20000000       0.20000000       0.20000000       0.20000000
           0.20000000       0.20000000       0.20000000       0.20000000       0.20000000       0.20000000       0.20000000       0.20000000       0.20000000       0.20000000       0.20000000       0.20000000       0.20000000       0.20000000       0.20000000       0.20000000       0.20000000       0.20000000       0.20000000       0.20000000
           0.20000000       0.20000000       0.20000000       0.20000000       0.20000000       0.20000000       0.20000000       0.20000000       0.20000000       0.20000000       0.20000000       0.20000000       0.20000000       0.20000000       0.20000000       0.20000000       0.20000000       0.20000000       0.20000000       0.20000000
           0.20000000       0.20000000       0.20000000       0.20000000       0.20000000       0.20000000       0.20000000       0.20000000       0.20000000       0.20000000       0.20000000       0.20000000       0.20000000       0.20000000       0.20000000       0.20000000       0.20000000       0.20000000       0.20000000       0.20000000
           0.20000000       0.20000000       0.20000000       0.20000000       0.20000000       0.20000000       0.20000000       0.20000000       0.20000000       0.20000000       0.20000000       0.20000000       0.20000000       0.20000000       0.20000000       0.20000000       0.20000000       0.20000000       0.20000000       0.20000000
           0.20000000       0.20000000       0.20000000       0.20000000       0.20000000       0.20000000       0.20000000       0.20000000       0.20000000       0.20000000       0.20000000       0.20000000       0.20000000       0.20000000       0.20000000       0.20000000       0.20000000       0.20000000       0.20000000       0.20000000
           0.20000000       0.20000000       0.20000000       0.20000000       0.20000000       0.20000000       0.20000000       0.20000000       0.20000000       0.20000000       0.20000000       0.20000000       0.20000000       0.20000000       0.20000000       0.20000000       0.20000000       0.20000000       0.20000000       0.20000000
           0.20000000       0.20000000       0.20000000       0.20000000       0.20000000       0.20000000       0.20000000       0.20000000       0.20000000       0.20000000       0.20000000       0.20000000       0.20000000       0.20000000       0.20000000       0.20000000       0.20000000       0.20000000       0.20000000       0.20000000
           0.20000000       0.20000000       0.40000000       0.40000000       0.40000000       0.40000000       0.40000000       0.40000000       0.40000000       0.40000000       0.40000000       0.40000000       0.40000000       0.40000000       0.40000000       0.40000000       0.40000000       0.40000000       0.40000000       0.40000000
           0.40000000       0.40000000       0.40000000       0.40000000       0.40000000       0.40000000       0.40000000       0.40000000       0.40000000       0.40000000       0.40000000       0.40000000       0.40000000       0.40000000       0.40000000       0.40000000       0.40000000       0.40000000       0.40000000       0.40000000
           0.40000000       0.40000000       0.40000000       0.40000000       0.40000000       0.40000000       0.40000000       0.40000000       0.40000000       0.40000000       0.40000000       0.40000000       0.40000000       0.40000000       0.40000000       0.40000000       0.40000000       0.40000000       0.40000000       0.40000000
           0.40000000       0.40000000       0.40000000       0.40000000       0.40000000       0.40000000       0.40000000       0.40000000       0.40000000       0.40000000       0.40000000       0.40000000       0.40000000       0.40000000       0.40000000       0.40000000       0.40000000       0.40000000       0.40000000       0.40000000
           0.40000000       0.40000000       0.40000000       0.40000000       0.40000000       0.40000000       0.40000000       0.40000000       0.40000000       0.40000000       0.40000000       0.40000000       0.40000000       0.40000000       0.40000000       0.40000000       0.40000000       0.40000000       0.40000000       0.40000000
           0.40000000       0.40000000       0.40000000       0.40000000       0.40000000       0.40000000       0.40000000       0.40000000       0.40000000       0.40000000       0.40000000       0.40000000       0.40000000       0.40000000       0.40000000       0.20000000       0.20000000       0.40000000       0.40000000       0.40000000
           0.40000000       0.40000000       0.40000000       0.40000000       0.40000000       0.40000000       0.40000000       0.40000000       0.40000000       0.40000000       0.20000000       0.40000000       0.40000000       0.40000000       0.40000000       0.40000000       0.40000000       0.40000000       0.40000000       0.40000000
           0.40000000       0.40000000       0.40000000       0.40000000       0.40000000       0.40000000       0.40000000       0.40000000       0.40000000       0.40000000       0.40000000       0.20000000       0.20000000       0.40000000       0.20000000       0.40000000       0.40000000       0.40000000       0.40000000       0.40000000
           0.40000000       0.40000000       0.40000000       0.40000000       0.40000000       0.40000000       0.20000000       0.20000000       0.20000000       0.20000000       0.20000000       0.40000000       0.40000000       0.40000000       0.40000000       0.20000000       0.40000000       0.40000000       0.40000000       0.40000000
           0.40000000       0.40000000       0.20000000       0.20000000       0.20000000       0.20000000       0.20000000       0.40000000       0.40000000       0.40000000       0.20000000       0.20000000       0.20000000       0.40000000       0.40000000       0.40000000       0.40000000       0.40000000       0.40000000       0.40000000
           0.40000000       0.40000000       0.40000000       0.20000000       0.40000000       0.40000000       0.40000000       0.40000000       0.40000000       0.40000000       0.40000000       0.40000000       0.40000000       0.40000000       0.40000000       0.40000000       0.40000000       0.20000000       0.20000000       0.20000000
           0.40000000       0.40000000       0.40000000       0.40000000       0.40000000       0.20000000       0.20000000       0.20000000       0.20000000       0.20000000       0.40000000       0.40000000       0.40000000       0.40000000       0.40000000       0.40000000       0.40000000       0.40000000       0.40000000       0.40000000
           0.40000000       0.40000000       0.40000000       0.40000000       0.40000000       0.20000000       0.40000000       0.40000000       0.40000000       0.40000000       0.40000000       0.40000000       0.40000000       0.40000000       0.40000000       0.40000000       0.40000000       0.40000000       0.40000000       0.40000000
           0.40000000       0.20000000       0.40000000       0.40000000       0.40000000       0.40000000       0.40000000       0.40000000       0.40000000       0.40000000       0.40000000       0.40000000       0.40000000       0.40000000       0.40000000       0.40000000       0.40000000       0.20000000       0.40000000       0.40000000
           0.40000000       0.40000000       0.40000000       0.40000000       0.40000000       0.40000000       0.40000000       0.40000000       0.40000000       0.40000000       0.40000000       0.40000000       0.40000000       0.40000000       0.40000000       0.40000000       0.20000000       0.40000000       0.40000000       0.20000000
           0.20000000       0.20000000       0.20000000       0.20000000       0.20000000       0.20000000       0.20000000       0.20000000       0.20000000       0.20000000       0.20000000       0.20000000       0.20000000       0.20000000       0.20000000       0.20000000       0.20000000       0.20000000       0.20000000       0.20000000
           0.40000000       0.40000000       0.40000000       0.40000000       0.40000000       0.40000000       0.40000000       0.40000000       0.40000000       0.40000000       0.40000000       0.40000000       0.40000000       0.40000000       0.40000000       0.40000000       0.40000000       0.40000000       0.20000000       0.40000000
           0.40000000       0.40000000       0.40000000       0.40000000       0.40000000       0.40000000       0.20000000       0.40000000       0.40000000       0.40000000       0.40000000       0.40000000       0.40000000       0.40000000       0.40000000       0.40000000       0.20000000       0.20000000       0.20000000       0.20000000
           0.20000000       0.20000000       0.20000000       0.20000000       0.20000000       0.20000000       0.20000000       0.20000000       0.20000000       0.20000000       0.20000000       0.20000000       0.20000000       0.20000000       0.20000000       0.20000000       0.20000000       0.20000000       0.20000000       0.20000000
           0.20000000       0.20000000       0.20000000       0.20000000       0.20000000       0.20000000       0.20000000       0.20000000       0.20000000       0.20000000       0.20000000       0.20000000       0.20000000       0.20000000       0.20000000       0.20000000       0.20000000       0.20000000       0.20000000       0.20000000
           0.40000000       0.40000000       0.40000000       0.40000000       0.40000000       0.40000000       0.40000000       0.40000000       0.40000000       0.40000000       0.40000000       0.40000000       0.40000000       0.40000000       0.40000000       0.40000000       0.40000000       0.40000000       0.40000000       0.40000000
           0.40000000       0.40000000       0.40000000       0.40000000       0.40000000       0.40000000       0.40000000       0.40000000       0.40000000       0.40000000       0.40000000       0.40000000       0.40000000       0.20000000       0.20000000       0.20000000       0.20000000       0.20000000       0.20000000       0.20000000
           0.20000000       0.20000000       0.20000000       0.20000000       0.20000000       0.20000000       0.20000000       0.20000000       0.20000000       0.20000000       0.20000000       0.20000000       0.20000000       0.20000000       0.20000000       0.20000000       0.20000000       0.20000000       0.20000000       0.20000000
           0.20000000       0.20000000       0.20000000       0.20000000       0.20000000       0.40000000       0.40000000       0.40000000       0.40000000       0.40000000       0.40000000       0.40000000       0.40000000       0.40000000       0.40000000       0.40000000       0.40000000       0.40000000       0.40000000       0.40000000
           0.40000000       0.40000000       0.40000000       0.40000000       0.40000000       0.40000000       0.20000000       0.20000000       0.20000000       0.20000000       0.20000000       0.20000000       0.20000000       0.20000000       0.20000000       0.20000000       0.20000000       0.20000000       0.20000000       0.20000000
           0.20000000       0.20000000       0.40000000       0.40000000       0.40000000       0.40000000       0.40000000       0.40000000       0.40000000       0.40000000       0.40000000       0.40000000       0.40000000       0.40000000       0.40000000       0.20000000       0.20000000       0.20000000       0.20000000       0.20000000
           0.20000000       0.20000000       0.20000000       0.20000000       0.40000000       0.40000000       0.40000000       0.40000000       0.20000000       0.20000000       0.20000000       0.40000000       0.40000000       0.40000000       0.40000000       0.40000000       0.40000000       0.40000000       0.20000000       0.20000000
           0.20000000       0.40000000       0.40000000       0.40000000       0.40000000       0.40000000       0.20000000       0.20000000       0.40000000       0.40000000       0.40000000       0.40000000       0.40000000       0.40000000       0.20000000       0.20000000       0.20000000       0.20000000       0.20000000       0.20000000
           0.20000000       0.20000000       0.20000000       0.20000000       0.20000000       0.20000000       0.20000000       0.20000000       0.20000000       0.20000000       0.20000000       0.20000000       0.40000000       0.40000000       0.40000000       0.40000000       0.40000000       0.40000000       0.40000000       0.40000000
           0.40000000       0.40000000       0.20000000       0.20000000       0.20000000       0.20000000       0.40000000       0.20000000       0.20000000       0.20000000       0.20000000       0.20000000       0.20000000       0.40000000       0.40000000       0.40000000       0.40000000       0.20000000       0.20000000       0.40000000
           0.40000000       0.40000000       0.40000000       0.40000000       0.40000000       0.40000000       0.20000000       0.20000000       0.20000000       0.20000000       0.20000000       0.20000000       0.20000000       0.20000000       0.20000000       0.20000000       0.20000000       0.20000000       0.40000000       0.40000000
           0.40000000       0.40000000       0.20000000       0.20000000       0.20000000       0.40000000       0.20000000       0.20000000       0.20000000       0.20000000       0.40000000       0.40000000       0.40000000       0.20000000       0.40000000       0.40000000       0.40000000       0.20000000       0.40000000       0.40000000
           0.20000000       0.20000000       0.40000000       0.20000000       0.20000000       0.20000000       0.20000000       0.40000000       0.40000000       0.40000000       0.20000000       0.20000000       0.20000000       0.20000000       0.20000000       0.20000000       0.20000000       0.20000000       0.20000000       0.20000000
           0.20000000       0.20000000       0.20000000       0.20000000       0.20000000       0.20000000       0.20000000       0.20000000       0.20000000       0.20000000       0.20000000       0.20000000       0.20000000       0.20000000       0.20000000       0.20000000       0.20000000       0.20000000       0.20000000       0.20000000
           0.20000000       0.20000000       0.20000000       0.20000000       0.20000000       0.20000000       0.20000000       0.20000000       0.20000000       0.20000000       0.20000000       0.20000000       0.20000000       0.20000000       0.20000000       0.20000000       0.20000000       0.20000000       0.20000000       0.20000000
           0.20000000       0.20000000       0.20000000       0.20000000       0.20000000       0.20000000       0.20000000       0.20000000       0.20000000       0.20000000       0.20000000       0.40000000       0.40000000       0.40000000       0.40000000       0.40000000       0.40000000       0.40000000       0.40000000       0.40000000
           0.40000000       0.40000000       0.20000000       0.40000000       0.40000000       0.40000000       0.20000000       0.20000000       0.20000000       0.20000000       0.20000000       0.20000000       0.20000000       0.20000000       0.20000000       0.40000000       0.40000000       0.40000000       0.20000000       0.20000000
           0.20000000       0.20000000       0.20000000       0.20000000       0.40000000       0.40000000       0.40000000       0.40000000       0.40000000       0.40000000       0.40000000       0.20000000       0.20000000       0.20000000       0.20000000       0.40000000       0.40000000       0.40000000       0.40000000       0.40000000
           0.40000000       0.20000000       0.20000000       0.20000000       0.40000000       0.40000000       0.40000000       0.40000000       0.20000000       0.20000000       0.20000000       0.20000000       0.20000000       0.20000000       0.20000000       0.20000000       0.20000000       0.20000000       0.20000000       0.20000000
           0.20000000       0.20000000       0.20000000       0.20000000       0.20000000       0.20000000       0.20000000       0.20000000       0.20000000       0.20000000       0.20000000       0.20000000       0.20000000       0.20000000       0.20000000       0.20000000       0.20000000       0.40000000       0.40000000       0.40000000
           0.40000000       0.40000000       0.40000000       0.40000000       0.40000000       0.20000000       0.20000000       0.20000000       0.20000000       0.40000000       0.40000000       0.20000000       0.20000000       0.20000000       0.20000000       0.20000000       0.40000000       0.40000000       0.40000000       0.40000000
           0.40000000       0.40000000       0.20000000       0.40000000       0.20000000       0.20000000       0.20000000       0.20000000       0.20000000       0.20000000       0.20000000       0.20000000       0.20000000       0.20000000       0.20000000       0.20000000       0.20000000       0.20000000       0.20000000       0.20000000
           0.20000000       0.20000000       0.20000000       0.20000000       0.20000000       0.20000000       0.20000000       0.20000000       0.20000000       0.20000000       0.20000000       0.20000000       0.20000000       0.20000000       0.20000000       0.20000000       0.20000000       0.20000000       0.20000000       0.20000000
           0.20000000       0.20000000       0.20000000       0.20000000       0.20000000       0.20000000       0.20000000       0.20000000       0.20000000       0.20000000       0.20000000       0.20000000       0.20000000       0.20000000       0.20000000       0.20000000       0.20000000       0.20000000       0.20000000       0.20000000