# File generated by Flopy version 3.6.0.dev0 on 02/07/2024 at 20:15:46.
BEGIN options
  SORPTION
  ZERO_ORDER_DECAY
END options

BEGIN griddata
  porosity
    CONSTANT       0.25000000
  volfrac
    CONSTANT       0.20000000
  zetaim
    CONSTANT       0.00100000
  decay
    CONSTANT       0.00000000
  decay_sorbed
    CONSTANT      -0.00100000
  bulk_density
    CONSTANT       4.00000000
  distcoef
    CONSTANT       0.25000000
END griddata

