# File generated by Flopy version 3.6.0.dev0 on 02/07/2024 at 20:15:46.
BEGIN options
  TIME_UNITS  days
END options

BEGIN dimensions
  NPER  2
END dimensions

BEGIN perioddata
    1000.00000000  10       1.00000000
    9000.00000000  90       1.00000000
END perioddata

