# File generated by Flopy version 3.6.0.dev0 on 02/07/2024 at 20:14:52.
BEGIN options
  SAVE_FLOWS
  NEWTON
END options

BEGIN packages
  DIS6  ex-gwf-csub-p02a.dis  dis
  OBS6  ex-gwf-csub-p02a.obs  obs_0
  IC6  ex-gwf-csub-p02a.ic  ic
  NPF6  ex-gwf-csub-p02a.npf  npf
  STO6  ex-gwf-csub-p02a.sto  sto
  CSUB6  ex-gwf-csub-p02a.csub  csub
  CHD6  ex-gwf-csub-p02a.chd  chd_0
  OC6  ex-gwf-csub-p02a.oc  oc
END packages

