# File generated by Flopy version 3.6.0.dev0 on 02/07/2024 at 20:14:52.
BEGIN options
END options

BEGIN period  1
  PRINT  BUDGET  ALL
END period  1

