# File generated by Flopy version 3.6.0.dev0 on 02/07/2024 at 20:15:17.
BEGIN options
END options

BEGIN dimensions
  MAXBOUND  4
END dimensions

BEGIN period  1
  1 1 1 5.00000000E-02
  1 1 2 5.00000000E-02
  1 2 1 5.00000000E-02
  1 2 2 5.00000000E-02
END period  1

