# File generated by Flopy version 3.6.0.dev0 on 02/07/2024 at 20:15:17.
BEGIN options
END options

BEGIN griddata
  icelltype  LAYERED
    CONSTANT  1
    CONSTANT  1
    CONSTANT  1
    CONSTANT  1
    CONSTANT  1
    CONSTANT  1
    CONSTANT  1
    CONSTANT  1
    CONSTANT  1
    CONSTANT  0
    CONSTANT  0
    CONSTANT  0
    CONSTANT  0
    CONSTANT  0
  k
    CONSTANT       5.00000000
  k33
    CONSTANT       0.25000000
END griddata

