# File generated by Flopy version 3.6.0.dev0 on 02/07/2024 at 20:15:17.
BEGIN options
END options

BEGIN griddata
  iconvert  LAYERED
    CONSTANT  1
    CONSTANT  1
    CONSTANT  1
    CONSTANT  1
    CONSTANT  1
    CONSTANT  1
    CONSTANT  1
    CONSTANT  1
    CONSTANT  1
    CONSTANT  0
    CONSTANT  0
    CONSTANT  0
    CONSTANT  0
    CONSTANT  0
  ss
    CONSTANT  2.00000000E-04
  sy
    CONSTANT       0.20000000
END griddata

BEGIN period  4
  STEADY-STATE
END period  4

