# File generated by Flopy version 3.6.0.dev0 on 02/07/2024 at 20:15:17.
BEGIN options
  NEWTON
END options

BEGIN packages
  DIS6  ex-gwf-nwt-p02.dis  dis
  NPF6  ex-gwf-nwt-p02.npf  npf
  STO6  ex-gwf-nwt-p02.sto  sto
  IC6  ex-gwf-nwt-p02.ic  ic
  CHD6  ex-gwf-nwt-p02.chd  chd_0
  RCH6  ex-gwf-nwt-p02.rch  rch_0
  OC6  ex-gwf-nwt-p02.oc  oc
END packages

