# File generated by Flopy version 3.6.0.dev0 on 02/07/2024 at 20:15:38.
BEGIN options
  auxiliary  CONCENTRATION
  PRINT_INPUT
  PRINT_FLOWS
END options

BEGIN dimensions
  MAXBOUND  1
END dimensions

BEGIN period  1
  1 80 21 1.00000000E-02 1.00000000E+03
END period  1

