# File generated by Flopy version 3.6.0.dev0 on 02/07/2024 at 20:15:45.
BEGIN options
  auxiliary  CONCENTRATION
END options

BEGIN dimensions
  MAXBOUND  1
END dimensions

BEGIN period  1
  1 1 1 1.00000000E-01 1.00000000E+00
END period  1

BEGIN period  2
  1 1 1 1.00000000E-01 0.00000000E+00
END period  2

