# File generated by Flopy version 3.6.0.dev0 on 02/07/2024 at 20:15:45.
BEGIN options
  TIME_UNITS  days
END options

BEGIN dimensions
  NPER  2
END dimensions

BEGIN perioddata
     160.00000000  1       1.00000000
     680.00000000  1       1.00000000
END perioddata

