# File generated by Flopy version 3.6.0.dev0 on 02/07/2024 at 20:14:47.
BEGIN options
  SAVE_SPECIFIC_DISCHARGE
END options

BEGIN griddata
  icelltype  LAYERED
    CONSTANT  1
    CONSTANT  0
  k  LAYERED
    CONSTANT      10.00000000
    CONSTANT       5.00000000
  k33
    CONSTANT       0.10000000
END griddata

