# File generated by Flopy version 3.6.0.dev0 on 02/07/2024 at 20:14:47.
BEGIN options
  READASARRAYS
END options

BEGIN period  1
  recharge
    CONSTANT       0.00400000
END period  1

