# File generated by Flopy version 3.6.0.dev0 on 02/07/2024 at 20:14:47.
BEGIN options
  LENGTH_UNITS  feet
END options

BEGIN dimensions
  NLAY  2
  NROW  10
  NCOL  15
END dimensions

BEGIN griddata
  delr
    CONSTANT     500.00000000
  delc
    CONSTANT     500.00000000
  top
    CONSTANT     150.00000000
  botm  LAYERED
    CONSTANT      50.00000000
    CONSTANT     -50.00000000
END griddata

