# File generated by Flopy version 3.6.0.dev0 on 02/07/2024 at 20:15:34.
BEGIN options
  TIME_UNITS  days
END options

BEGIN dimensions
  NPER  1
END dimensions

BEGIN perioddata
    2000.00000000  100       1.00000000
END perioddata

