# File generated by Flopy version 3.6.0.dev0 on 02/07/2024 at 20:15:34.
BEGIN options
  BUDGET  FILEOUT  gwf-p01-mf6.cbc
  HEAD  FILEOUT  gwf-p01-mf6.hds
  HEAD  PRINT_FORMAT  COLUMNS  10  WIDTH  15  DIGITS  6  GENERAL
END options

BEGIN period  1
  SAVE  HEAD  LAST
  SAVE  BUDGET  LAST
  PRINT  HEAD  LAST
  PRINT  BUDGET  LAST
END period  1

