# File generated by Flopy version 3.6.0.dev0 on 02/07/2024 at 20:16:57.
BEGIN options
END options

BEGIN timing
  TDIS6  ex-gwf-u1disv-x.tdis
END timing

BEGIN models
  gwf6  ex-gwf-u1disv-x.nam  ex-gwf-u1disv-x
END models

BEGIN exchanges
END exchanges

BEGIN solutiongroup  1
  ims6  ex-gwf-u1disv-x.ims  ex-gwf-u1disv-x
END solutiongroup  1

