# File generated by Flopy version 3.6.0.dev0 on 02/07/2024 at 20:15:33.
BEGIN options
  XT3D
  SAVE_SPECIFIC_DISCHARGE
  SAVE_SATURATION
END options

BEGIN griddata
  icelltype
    CONSTANT  0
  k
    CONSTANT       0.01250000
END griddata

