# File generated by Flopy version 3.6.0.dev0 on 02/07/2024 at 20:15:29.
BEGIN options
  auxiliary  concentration
END options

BEGIN dimensions
  MAXBOUND  24
END dimensions

BEGIN period  1
  1 1 169 7.20000000E-02 1.00000000E+00
  1 1 170 7.20000000E-02 1.00000000E+00
  1 1 171 7.20000000E-02 1.00000000E+00
  1 1 172 7.20000000E-02 1.00000000E+00
  1 1 173 7.20000000E-02 1.00000000E+00
  1 1 174 7.20000000E-02 1.00000000E+00
  1 1 175 7.20000000E-02 1.00000000E+00
  1 1 176 7.20000000E-02 1.00000000E+00
  1 1 177 7.20000000E-02 1.00000000E+00
  1 1 178 7.20000000E-02 1.00000000E+00
  1 1 179 7.20000000E-02 1.00000000E+00
  1 1 180 7.20000000E-02 1.00000000E+00
  1 1 181 7.20000000E-02 1.00000000E+00
  1 1 182 7.20000000E-02 1.00000000E+00
  1 1 183 7.20000000E-02 1.00000000E+00
  1 1 184 7.20000000E-02 1.00000000E+00
  1 1 185 7.20000000E-02 1.00000000E+00
  1 1 186 7.20000000E-02 1.00000000E+00
  1 1 187 7.20000000E-02 1.00000000E+00
  1 1 188 7.20000000E-02 1.00000000E+00
  1 1 189 7.20000000E-02 1.00000000E+00
  1 1 190 7.20000000E-02 1.00000000E+00
  1 1 191 7.20000000E-02 1.00000000E+00
  1 1 192 7.20000000E-02 1.00000000E+00
END period  1

BEGIN period  2
  1 1 169 7.20000000E-02 0.00000000E+00
  1 1 170 7.20000000E-02 0.00000000E+00
  1 1 171 7.20000000E-02 0.00000000E+00
  1 1 172 7.20000000E-02 0.00000000E+00
  1 1 173 7.20000000E-02 0.00000000E+00
  1 1 174 7.20000000E-02 0.00000000E+00
  1 1 175 7.20000000E-02 0.00000000E+00
  1 1 176 7.20000000E-02 0.00000000E+00
  1 1 177 7.20000000E-02 0.00000000E+00
  1 1 178 7.20000000E-02 0.00000000E+00
  1 1 179 7.20000000E-02 0.00000000E+00
  1 1 180 7.20000000E-02 0.00000000E+00
  1 1 181 7.20000000E-02 0.00000000E+00
  1 1 182 7.20000000E-02 0.00000000E+00
  1 1 183 7.20000000E-02 0.00000000E+00
  1 1 184 7.20000000E-02 0.00000000E+00
  1 1 185 7.20000000E-02 0.00000000E+00
  1 1 186 7.20000000E-02 0.00000000E+00
  1 1 187 7.20000000E-02 0.00000000E+00
  1 1 188 7.20000000E-02 0.00000000E+00
  1 1 189 7.20000000E-02 0.00000000E+00
  1 1 190 7.20000000E-02 0.00000000E+00
  1 1 191 7.20000000E-02 0.00000000E+00
  1 1 192 7.20000000E-02 0.00000000E+00
END period  2

