# File generated by Flopy version 3.6.0.dev0 on 02/07/2024 at 20:14:57.
BEGIN options
  BUDGET  FILEOUT  ex-gwf-lak-p02.cbc
  HEAD  FILEOUT  ex-gwf-lak-p02.hds
END options

BEGIN period  1
  SAVE  HEAD  LAST
  SAVE  BUDGET  LAST
END period  1

