# File generated by Flopy version 3.6.0.dev0 on 02/07/2024 at 20:14:57.
BEGIN griddata
  strt
    CONSTANT     115.00000000
END griddata

