# File generated by Flopy version 3.6.0.dev0 on 02/07/2024 at 20:14:57.
BEGIN options
  SAVE_SPECIFIC_DISCHARGE
END options

BEGIN griddata
  icelltype
    CONSTANT  1
  k
    CONSTANT      30.00000000
  k33
    CONSTANT      30.00000000
END griddata

