# File generated by Flopy version 3.6.0.dev0 on 02/07/2024 at 20:14:57.
BEGIN options
  TIME_UNITS  days
END options

BEGIN dimensions
  NPER  1
END dimensions

BEGIN perioddata
    1500.00000000  200       1.00500000
END perioddata

