# File generated by Flopy version 3.6.0.dev0 on 02/07/2024 at 20:14:57.
BEGIN options
END options

BEGIN dimensions
  MAXMVR  4
  MAXPACKAGES  2
END dimensions

BEGIN packages
  SFR-1
  LAK-1
END packages

BEGIN period  1
  SFR-1  8  LAK-1  1  FACTOR       1.00000000
  LAK-1  1  SFR-1  9  FACTOR       1.00000000
  SFR-1  14  LAK-1  2  FACTOR       1.00000000
  LAK-1  2  SFR-1  15  FACTOR       0.50000000
END period  1

