# File generated by Flopy version 3.6.0.dev0 on 02/07/2024 at 20:15:36.
BEGIN options
  SAVE_FLOWS
END options

BEGIN packages
  DIS6  gwf-p03-mf6.dis  dis
  NPF6  gwf-p03-mf6.npf  npf
  IC6  gwf-p03-mf6.ic  ic
  STO6  gwf-p03-mf6.sto  sto
  CHD6  gwf-p03-mf6.chd  chd-1
  WEL6  gwf-p03-mf6.wel  wel-1
  OC6  gwf-p03-mf6.oc  oc
END packages

