# File generated by Flopy version 3.6.0.dev0 on 02/07/2024 at 20:16:16.
BEGIN options
  PRINT_OPTION  all
  COMPLEXITY  simple
END options

BEGIN linear
  LINEAR_ACCELERATION  bicgstab
END linear

