# File generated by Flopy version 3.6.0.dev0 on 02/07/2024 at 20:16:17.
BEGIN griddata
  strt
    CONSTANT      11.00000000
END griddata

