# File generated by Flopy version 3.6.0.dev0 on 02/07/2024 at 20:16:17.
BEGIN options
  BUDGET  FILEOUT  flow.cbc
  HEAD  FILEOUT  flow.hds
END options

BEGIN period  1
  SAVE  HEAD  ALL
  SAVE  BUDGET  ALL
  PRINT  BUDGET  ALL
END period  1

