# File generated by Flopy version 3.6.0.dev0 on 02/07/2024 at 20:15:30.
BEGIN options
  XT3D_OFF
END options

BEGIN griddata
  alh
    CONSTANT       0.10000000
  ath1
    CONSTANT       0.10000000
END griddata

