# File generated by Flopy version 3.9.1 on 02/10/2025 at 11:24:45.
BEGIN options
  PRINT_OPTION  summary
  CSV_INNER_OUTPUT  FILEOUT  etmodel.inner.csv
END options

BEGIN nonlinear
  OUTER_DVCLOSE  1.00000000E-09
END nonlinear

BEGIN linear
  INNER_DVCLOSE  1.00000000E-08
  inner_rclose  1.00000000E-06  strict
  LINEAR_ACCELERATION  bicgstab
END linear

