# File generated by Flopy version 3.9.1 on 02/10/2025 at 11:24:45.
BEGIN options
  TIME_UNITS  days
END options

BEGIN dimensions
  NPER  1
END dimensions

BEGIN perioddata
    1000.00000000  1000       1.05000000
END perioddata

