# File generated by Flopy version 3.9.1 on 02/10/2025 at 11:24:45.
BEGIN options
END options

BEGIN period  1
  PRINT  BUDGET  ALL
END period  1

