# File generated by Flopy version 3.9.1 on 02/10/2025 at 11:24:45.
BEGIN options
END options

BEGIN griddata
  iconvert
    CONSTANT  1
  ss
    CONSTANT  1.50000000E-05
  sy
    CONSTANT       0.20000000
END griddata

