# File generated by Flopy version 3.9.1 on 02/10/2025 at 11:24:45.
BEGIN options
  NEWTON  UNDER_RELAXATION
END options

BEGIN packages
  DIS6  etmodel.dis  dis
  NPF6  etmodel.npf  npf
  STO6  etmodel.sto  sto
  IC6  etmodel.ic  ic
  API6  etmodel.api  bmi-et
  OC6  etmodel.oc  oc
  OBS6  etmodel.obs  obs_0
END packages

