# File generated by Flopy version 3.9.1 on 02/10/2025 at 11:24:45.
BEGIN options
END options

BEGIN continuous  FILEOUT  head.csv
  H01  HEAD  1 1 1
  H02  HEAD  2 1 1
  H03  HEAD  3 1 1
  H04  HEAD  4 1 1
  H05  HEAD  5 1 1
  H06  HEAD  6 1 1
  H07  HEAD  7 1 1
  H08  HEAD  8 1 1
  H09  HEAD  9 1 1
  H10  HEAD  10 1 1
END continuous  FILEOUT  head.csv

