# File generated by Flopy version 3.9.1 on 02/10/2025 at 11:24:45.
BEGIN options
  LENGTH_UNITS  meters
END options

BEGIN dimensions
  NLAY  10
  NROW  1
  NCOL  1
END dimensions

BEGIN griddata
  delr
    CONSTANT      10.00000000
  delc
    CONSTANT      10.00000000
  top
    CONSTANT       0.00000000
  botm  LAYERED
    CONSTANT      -0.50000000
    CONSTANT      -1.00000000
    CONSTANT      -1.50000000
    CONSTANT      -2.00000000
    CONSTANT      -2.50000000
    CONSTANT      -3.00000000
    CONSTANT      -3.50000000
    CONSTANT      -4.00000000
    CONSTANT      -4.50000000
    CONSTANT      -5.00000000
END griddata

