# File generated by Flopy version 3.9.1 on 02/10/2025 at 11:24:45.
BEGIN options
  MEMORY_PRINT_OPTION  all
END options

BEGIN timing
  TDIS6  etmodel.tdis
END timing

BEGIN models
  gwf6  etmodel.nam  etmodel
END models

BEGIN exchanges
END exchanges

BEGIN solutiongroup  1
  ims6  etmodel.ims  etmodel
END solutiongroup  1

