# File generated by Flopy version 3.6.0.dev0 on 02/07/2024 at 20:15:22.
BEGIN options
END options

BEGIN nonlinear
  OUTER_DVCLOSE  1.00000000E-09
  OUTER_MAXIMUM  500
END nonlinear

BEGIN linear
  INNER_MAXIMUM  50
  INNER_DVCLOSE  1.00000000E-09
  inner_rclose  1.00000000E-06  strict
  LINEAR_ACCELERATION  bicgstab
END linear

