# File generated by Flopy version 3.6.0.dev0 on 02/07/2024 at 20:15:22.
BEGIN options
END options

BEGIN dimensions
  MAXBOUND  2
END dimensions

BEGIN period  1
  1 1 1 2.30000000E+01
  1 1 200 1.00000000E+01
END period  1

