# File generated by Flopy version 3.6.0.dev0 on 02/07/2024 at 20:15:22.
BEGIN griddata
  strt
    CONSTANT      23.00000000
END griddata

