# File generated by Flopy version 3.6.0.dev0 on 02/07/2024 at 20:16:19.
BEGIN options
  auxiliary  CONCENTRATION
END options

BEGIN dimensions
  MAXBOUND  14
END dimensions

BEGIN period  1
  14 1 1 1.62500000E+00 0.00000000E+00
  14 1 40 1.62500000E+00 0.00000000E+00
  15 1 1 1.62500000E+00 0.00000000E+00
  15 1 40 1.62500000E+00 0.00000000E+00
  16 1 1 1.62500000E+00 0.00000000E+00
  16 1 40 1.62500000E+00 0.00000000E+00
  17 1 1 1.62500000E+00 0.00000000E+00
  17 1 40 1.62500000E+00 0.00000000E+00
  18 1 1 1.62500000E+00 0.00000000E+00
  18 1 40 1.62500000E+00 0.00000000E+00
  19 1 1 1.62500000E+00 0.00000000E+00
  19 1 40 1.62500000E+00 0.00000000E+00
  20 1 1 1.62500000E+00 0.00000000E+00
  20 1 40 1.62500000E+00 0.00000000E+00
END period  1

