# File generated by Flopy version 3.6.0.dev0 on 02/07/2024 at 20:16:19.
BEGIN options
  SAVE_SPECIFIC_DISCHARGE
END options

BEGIN griddata
  icelltype
    CONSTANT  1
  k  LAYERED
    INTERNAL  FACTOR  1.0
           2.50000000       2.50000000       2.50000000       2.50000000       2.50000000       2.50000000       2.50000000       2.50000000       2.50000000       2.50000000       2.50000000       2.50000000       2.50000000       2.50000000       2.50000000       2.50000000       2.50000000       2.50000000       2.50000000       2.50000000       2.50000000       2.50000000       2.50000000       2.50000000       2.50000000       2.50000000       2.50000000       2.50000000       2.50000000       2.50000000       2.50000000       2.50000000       2.50000000       2.50000000       2.50000000       2.50000000       2.50000000       2.50000000       2.50000000       2.50000000
    INTERNAL  FACTOR  1.0
           2.50000000       2.50000000       2.50000000       2.50000000       2.50000000       2.50000000       2.50000000       2.50000000       2.50000000       2.50000000       2.50000000       2.50000000       2.50000000       2.50000000       2.50000000       2.50000000       2.50000000       2.50000000       2.50000000       2.50000000       2.50000000       2.50000000       2.50000000       2.50000000       2.50000000       2.50000000       2.50000000       2.50000000       2.50000000       2.50000000       2.50000000       2.50000000       2.50000000       2.50000000       2.50000000       2.50000000       2.50000000       2.50000000       2.50000000       2.50000000
    INTERNAL  FACTOR  1.0
           2.50000000       2.50000000       2.50000000       2.50000000       2.50000000       2.50000000       2.50000000       2.50000000       2.50000000       2.50000000       2.50000000       2.50000000       2.50000000       2.50000000       2.50000000       2.50000000       2.50000000       2.50000000       2.50000000       2.50000000       2.50000000       2.50000000       2.50000000       2.50000000       2.50000000       2.50000000       2.50000000       2.50000000       2.50000000       2.50000000       2.50000000       2.50000000       2.50000000       2.50000000       2.50000000       2.50000000       2.50000000       2.50000000       2.50000000       2.50000000
    INTERNAL  FACTOR  1.0
           2.50000000       2.50000000       2.50000000       2.50000000       2.50000000       2.50000000       2.50000000       2.50000000       2.50000000       2.50000000       2.50000000       2.50000000       2.50000000       2.50000000       2.50000000       2.50000000       2.50000000       2.50000000       2.50000000       2.50000000       2.50000000       2.50000000       2.50000000       2.50000000       2.50000000       2.50000000       2.50000000       2.50000000       2.50000000       2.50000000       2.50000000       2.50000000       2.50000000       2.50000000       2.50000000       2.50000000       2.50000000       2.50000000       2.50000000       2.50000000
    INTERNAL  FACTOR  1.0
           2.50000000       2.50000000       2.50000000       2.50000000       2.50000000       2.50000000       2.50000000       2.50000000       2.50000000       2.50000000       2.50000000       2.50000000       2.50000000       2.50000000       2.50000000       2.50000000       2.50000000       2.50000000       2.50000000       2.50000000       2.50000000       2.50000000       2.50000000       2.50000000       2.50000000       2.50000000       2.50000000       2.50000000       2.50000000       2.50000000       2.50000000       2.50000000       2.50000000       2.50000000       2.50000000       2.50000000       2.50000000       2.50000000       2.50000000       2.50000000
    INTERNAL  FACTOR  1.0
           2.50000000       2.50000000       2.50000000       2.50000000       2.50000000       2.50000000       2.50000000       2.50000000       2.50000000       2.50000000       2.50000000       2.50000000       2.50000000       2.50000000       2.50000000       2.50000000       2.50000000       2.50000000       2.50000000       2.50000000       2.50000000       2.50000000       2.50000000       2.50000000       2.50000000       2.50000000       2.50000000       2.50000000       2.50000000       2.50000000       2.50000000       2.50000000       2.50000000       2.50000000       2.50000000       2.50000000       2.50000000       2.50000000       2.50000000       2.50000000
    INTERNAL  FACTOR  1.0
           2.50000000       2.50000000       2.50000000       2.50000000       2.50000000       2.50000000       2.50000000       2.50000000       2.50000000       2.50000000       2.50000000       2.50000000       2.50000000       2.50000000       2.50000000       2.50000000       2.50000000       2.50000000       2.50000000       2.50000000       2.50000000       2.50000000       2.50000000       2.50000000       2.50000000       2.50000000       2.50000000       2.50000000       2.50000000       2.50000000       2.50000000       2.50000000       2.50000000       2.50000000       2.50000000       2.50000000       2.50000000       2.50000000       2.50000000       2.50000000
    INTERNAL  FACTOR  1.0
           2.50000000       2.50000000       2.50000000       2.50000000       2.50000000       2.50000000       2.50000000       2.50000000       2.50000000       2.50000000       2.50000000       2.50000000       2.50000000       2.50000000       2.50000000       2.50000000       2.50000000       2.50000000       2.50000000       2.50000000       2.50000000       2.50000000       2.50000000       2.50000000       2.50000000       2.50000000       2.50000000       2.50000000       2.50000000       2.50000000       2.50000000       2.50000000       2.50000000       2.50000000       2.50000000       2.50000000       2.50000000       2.50000000       2.50000000       2.50000000
    INTERNAL  FACTOR  1.0
           2.50000000       2.50000000       2.50000000       2.50000000       2.50000000       2.50000000       2.50000000       2.50000000       2.50000000       2.50000000       2.50000000       2.50000000       2.50000000       2.50000000       2.50000000       2.50000000       2.50000000       2.50000000       2.50000000       2.50000000       2.50000000       2.50000000       2.50000000       2.50000000       2.50000000       2.50000000       2.50000000       2.50000000       2.50000000       2.50000000       2.50000000       2.50000000       2.50000000       2.50000000       2.50000000       2.50000000       2.50000000       2.50000000       2.50000000       2.50000000
    INTERNAL  FACTOR  1.0
           2.50000000       2.50000000       2.50000000       2.50000000       2.50000000       2.50000000       2.50000000       2.50000000       2.50000000       2.50000000       2.50000000       2.50000000       2.50000000       2.50000000       2.50000000       2.50000000       2.50000000       2.50000000       2.50000000       2.50000000       2.50000000       2.50000000       2.50000000       2.50000000       2.50000000       2.50000000       2.50000000       2.50000000       2.50000000       2.50000000       2.50000000       2.50000000       2.50000000       2.50000000       2.50000000       2.50000000       2.50000000       2.50000000       2.50000000       2.50000000
    INTERNAL  FACTOR  1.0
           2.50000000       2.50000000       2.50000000       2.50000000       2.50000000       2.50000000       2.50000000       2.50000000       2.50000000       2.50000000       2.50000000       2.50000000       2.50000000       2.50000000       2.50000000       2.50000000       2.50000000       2.50000000       2.50000000       2.50000000       2.50000000       2.50000000       2.50000000       2.50000000       2.50000000       2.50000000       2.50000000       2.50000000       2.50000000       2.50000000       2.50000000       2.50000000       2.50000000       2.50000000       2.50000000       2.50000000       2.50000000       2.50000000       2.50000000       2.50000000
    INTERNAL  FACTOR  1.0
           2.50000000       2.50000000       2.50000000       2.50000000       2.50000000       2.50000000       2.50000000       2.50000000       2.50000000       2.50000000       2.50000000       2.50000000       2.50000000       2.50000000       2.50000000       2.50000000       2.50000000       2.50000000       2.50000000       2.50000000       2.50000000       2.50000000       2.50000000       2.50000000       2.50000000       2.50000000       2.50000000       2.50000000       2.50000000       2.50000000       2.50000000       2.50000000       2.50000000       2.50000000       2.50000000       2.50000000       2.50000000       2.50000000       2.50000000       2.50000000
    INTERNAL  FACTOR  1.0
           2.50000000       2.50000000       2.50000000       2.50000000       2.50000000       2.50000000       2.50000000       2.50000000       2.50000000       2.50000000       2.50000000       2.50000000       2.50000000       2.50000000       2.50000000       2.50000000       2.50000000       2.50000000       2.50000000       2.50000000       2.50000000       2.50000000       2.50000000       2.50000000       2.50000000       2.50000000       2.50000000       2.50000000       2.50000000       2.50000000       2.50000000       2.50000000       2.50000000       2.50000000       2.50000000       2.50000000       2.50000000       2.50000000       2.50000000       2.50000000
    INTERNAL  FACTOR  1.0
           2.50000000       2.50000000       2.50000000       2.50000000       2.50000000       2.50000000       2.50000000       2.50000000       2.50000000       2.50000000       2.50000000       2.50000000       2.50000000       2.50000000       2.50000000       2.50000000       2.50000000       2.50000000       2.50000000       2.50000000       2.50000000       2.50000000       2.50000000       2.50000000       2.50000000       2.50000000       2.50000000       2.50000000       2.50000000       2.50000000       2.50000000       2.50000000       2.50000000       2.50000000       2.50000000       2.50000000       2.50000000       2.50000000       2.50000000       2.50000000
    INTERNAL  FACTOR  1.0
           2.50000000       2.50000000       2.50000000       2.50000000       2.50000000       2.50000000       2.50000000       2.50000000       2.50000000       2.50000000       2.50000000       2.50000000       2.50000000       2.50000000       2.50000000       2.50000000       2.50000000       2.50000000       2.50000000       2.50000000       2.50000000       2.50000000       2.50000000       2.50000000       2.50000000       2.50000000       2.50000000       2.50000000       2.50000000       2.50000000       2.50000000       2.50000000       2.50000000       2.50000000       2.50000000       2.50000000       2.50000000       2.50000000       2.50000000       2.50000000
    INTERNAL  FACTOR  1.0
           2.50000000       2.50000000       2.50000000       2.50000000       2.50000000       2.50000000       2.50000000       2.50000000       2.50000000       2.50000000       2.50000000       2.50000000       2.50000000       2.50000000       2.50000000       2.50000000       2.50000000       2.50000000       2.50000000       2.50000000       2.50000000       2.50000000       2.50000000       2.50000000       2.50000000       2.50000000       2.50000000       2.50000000       2.50000000       2.50000000       2.50000000       2.50000000       2.50000000       2.50000000       2.50000000       2.50000000       2.50000000       2.50000000       2.50000000       2.50000000
    INTERNAL  FACTOR  1.0
           2.50000000       2.50000000       2.50000000       2.50000000       2.50000000       2.50000000       2.50000000       2.50000000       2.50000000       2.50000000       2.50000000       2.50000000       2.50000000       2.50000000       2.50000000       2.50000000       2.50000000       2.50000000       2.50000000       2.50000000       2.50000000       2.50000000       2.50000000       2.50000000       2.50000000       2.50000000       2.50000000       2.50000000       2.50000000       2.50000000       2.50000000       2.50000000       2.50000000       2.50000000       2.50000000       2.50000000       2.50000000       2.50000000       2.50000000       2.50000000
    INTERNAL  FACTOR  1.0
           2.50000000       2.50000000       2.50000000       2.50000000       2.50000000       2.50000000       2.50000000       2.50000000       2.50000000       2.50000000       2.50000000       2.50000000       2.50000000       2.50000000       2.50000000       2.50000000       2.50000000       2.50000000       2.50000000       2.50000000       2.50000000       2.50000000       2.50000000       2.50000000       2.50000000       2.50000000       2.50000000       2.50000000       2.50000000       2.50000000       2.50000000       2.50000000       2.50000000       2.50000000       2.50000000       2.50000000       2.50000000       2.50000000       2.50000000       2.50000000
    INTERNAL  FACTOR  1.0
           2.50000000       2.50000000       2.50000000       2.50000000       2.50000000       2.50000000       2.50000000       2.50000000       2.50000000       2.50000000       2.50000000       2.50000000       2.50000000       2.50000000       2.50000000       2.50000000       2.50000000       2.50000000       2.50000000       2.50000000       2.50000000       2.50000000       2.50000000       2.50000000       2.50000000       2.50000000       2.50000000       2.50000000       2.50000000       2.50000000       2.50000000       2.50000000       2.50000000       2.50000000       2.50000000       2.50000000       2.50000000       2.50000000       2.50000000       2.50000000
    INTERNAL  FACTOR  1.0
           2.50000000       2.50000000       2.50000000       2.50000000       2.50000000       2.50000000       2.50000000       2.50000000       2.50000000       2.50000000       2.50000000       2.50000000       2.50000000       2.50000000       2.50000000       2.50000000       2.50000000       2.50000000       2.50000000       2.50000000       2.50000000       2.50000000       2.50000000       2.50000000       2.50000000       2.50000000       2.50000000       2.50000000       2.50000000       2.50000000       2.50000000       2.50000000       2.50000000       2.50000000       2.50000000       2.50000000       2.50000000       2.50000000       2.50000000       2.50000000
  k33  LAYERED
    INTERNAL  FACTOR  1.0
           0.50000000       0.50000000       0.50000000       0.50000000       0.50000000       0.50000000       0.50000000       0.50000000       0.50000000       0.50000000       0.50000000       0.50000000       0.50000000       0.50000000       0.50000000       0.50000000       0.50000000       0.50000000       0.50000000       0.50000000       0.50000000       0.50000000       0.50000000       0.50000000       0.50000000       0.50000000       0.50000000       0.50000000       0.50000000       0.50000000       0.50000000       0.50000000       0.50000000       0.50000000       0.50000000       0.50000000       0.50000000       0.50000000       0.50000000       0.50000000
    INTERNAL  FACTOR  1.0
           0.50000000       0.50000000       0.50000000       0.50000000       0.50000000       0.50000000       0.50000000       0.50000000       0.50000000       0.50000000       0.50000000       0.50000000       0.50000000       0.50000000       0.50000000       0.50000000       0.50000000       0.50000000       0.50000000       0.50000000       0.50000000       0.50000000       0.50000000       0.50000000       0.50000000       0.50000000       0.50000000       0.50000000       0.50000000       0.50000000       0.50000000       0.50000000       0.50000000       0.50000000       0.50000000       0.50000000       0.50000000       0.50000000       0.50000000       0.50000000
    INTERNAL  FACTOR  1.0
           0.50000000       0.50000000       0.50000000       0.50000000       0.50000000       0.50000000       0.50000000       0.50000000       0.50000000       0.50000000       0.50000000       0.50000000       0.50000000       0.50000000       0.50000000       0.50000000       0.50000000       0.50000000       0.50000000       0.50000000       0.50000000       0.50000000       0.50000000       0.50000000       0.50000000       0.50000000       0.50000000       0.50000000       0.50000000       0.50000000       0.50000000       0.50000000       0.50000000       0.50000000       0.50000000       0.50000000       0.50000000       0.50000000       0.50000000       0.50000000
    INTERNAL  FACTOR  1.0
           0.50000000       0.50000000       0.50000000       0.50000000       0.50000000       0.50000000       0.50000000       0.50000000       0.50000000       0.50000000       0.50000000       0.50000000       0.50000000       0.50000000       0.50000000       0.50000000       0.50000000       0.50000000       0.50000000       0.50000000       0.50000000       0.50000000       0.50000000       0.50000000       0.50000000       0.50000000       0.50000000       0.50000000       0.50000000       0.50000000       0.50000000       0.50000000       0.50000000       0.50000000       0.50000000       0.50000000       0.50000000       0.50000000       0.50000000       0.50000000
    INTERNAL  FACTOR  1.0
           0.50000000       0.50000000       0.50000000       0.50000000       0.50000000       0.50000000       0.50000000       0.50000000       0.50000000       0.50000000       0.50000000       0.50000000       0.50000000       0.50000000       0.50000000       0.50000000       0.50000000       0.50000000       0.50000000       0.50000000       0.50000000       0.50000000       0.50000000       0.50000000       0.50000000       0.50000000       0.50000000       0.50000000       0.50000000       0.50000000       0.50000000       0.50000000       0.50000000       0.50000000       0.50000000       0.50000000       0.50000000       0.50000000       0.50000000       0.50000000
    INTERNAL  FACTOR  1.0
           0.50000000       0.50000000       0.50000000       0.50000000       0.50000000       0.50000000       0.50000000       0.50000000       0.50000000       0.50000000       0.50000000       0.50000000       0.50000000       0.50000000       0.50000000       0.50000000       0.50000000       0.50000000       0.50000000       0.50000000       0.50000000       0.50000000       0.50000000       0.50000000       0.50000000       0.50000000       0.50000000       0.50000000       0.50000000       0.50000000       0.50000000       0.50000000       0.50000000       0.50000000       0.50000000       0.50000000       0.50000000       0.50000000       0.50000000       0.50000000
    INTERNAL  FACTOR  1.0
           0.50000000       0.50000000       0.50000000       0.50000000       0.50000000       0.50000000       0.50000000       0.50000000       0.50000000       0.50000000       0.50000000       0.50000000       0.50000000       0.50000000       0.50000000       0.50000000       0.50000000       0.50000000       0.50000000       0.50000000       0.50000000       0.50000000       0.50000000       0.50000000       0.50000000       0.50000000       0.50000000       0.50000000       0.50000000       0.50000000       0.50000000       0.50000000       0.50000000       0.50000000       0.50000000       0.50000000       0.50000000       0.50000000       0.50000000       0.50000000
    INTERNAL  FACTOR  1.0
           0.50000000       0.50000000       0.50000000       0.50000000       0.50000000       0.50000000       0.50000000       0.50000000       0.50000000       0.50000000       0.50000000       0.50000000       0.50000000       0.50000000       0.50000000       0.50000000       0.50000000       0.50000000       0.50000000       0.50000000       0.50000000       0.50000000       0.50000000       0.50000000       0.50000000       0.50000000       0.50000000       0.50000000       0.50000000       0.50000000       0.50000000       0.50000000       0.50000000       0.50000000       0.50000000       0.50000000       0.50000000       0.50000000       0.50000000       0.50000000
    INTERNAL  FACTOR  1.0
           0.50000000       0.50000000       0.50000000       0.50000000       0.50000000       0.50000000       0.50000000       0.50000000       0.50000000       0.50000000       0.50000000       0.50000000       0.50000000       0.50000000       0.50000000       0.50000000       0.50000000       0.50000000       0.50000000       0.50000000       0.50000000       0.50000000       0.50000000       0.50000000       0.50000000       0.50000000       0.50000000       0.50000000       0.50000000       0.50000000       0.50000000       0.50000000       0.50000000       0.50000000       0.50000000       0.50000000       0.50000000       0.50000000       0.50000000       0.50000000
    INTERNAL  FACTOR  1.0
           0.50000000       0.50000000       0.50000000       0.50000000       0.50000000       0.50000000       0.50000000       0.50000000       0.50000000       0.50000000       0.50000000       0.50000000       0.50000000       0.50000000       0.50000000       0.50000000       0.50000000       0.50000000       0.50000000       0.50000000       0.50000000       0.50000000       0.50000000       0.50000000       0.50000000       0.50000000       0.50000000       0.50000000       0.50000000       0.50000000       0.50000000       0.50000000       0.50000000       0.50000000       0.50000000       0.50000000       0.50000000       0.50000000       0.50000000       0.50000000
    INTERNAL  FACTOR  1.0
           0.50000000       0.50000000       0.50000000       0.50000000       0.50000000       0.50000000       0.50000000       0.50000000       0.50000000       0.50000000       0.50000000       0.50000000       0.50000000       0.50000000       0.50000000       0.50000000       0.50000000       0.50000000       0.50000000       0.50000000       0.50000000       0.50000000       0.50000000       0.50000000       0.50000000       0.50000000       0.50000000       0.50000000       0.50000000       0.50000000       0.50000000       0.50000000       0.50000000       0.50000000       0.50000000       0.50000000       0.50000000       0.50000000       0.50000000       0.50000000
    INTERNAL  FACTOR  1.0
           0.50000000       0.50000000       0.50000000       0.50000000       0.50000000       0.50000000       0.50000000       0.50000000       0.50000000       0.50000000       0.50000000       0.50000000       0.50000000       0.50000000       0.50000000       0.50000000       0.50000000       0.50000000       0.50000000       0.50000000       0.50000000       0.50000000       0.50000000       0.50000000       0.50000000       0.50000000       0.50000000       0.50000000       0.50000000       0.50000000       0.50000000       0.50000000       0.50000000       0.50000000       0.50000000       0.50000000       0.50000000       0.50000000       0.50000000       0.50000000
    INTERNAL  FACTOR  1.0
           0.50000000       0.50000000       0.50000000       0.50000000       0.50000000       0.50000000       0.50000000       0.50000000       0.50000000       0.50000000       0.50000000       0.50000000       0.50000000       0.50000000       0.50000000       0.50000000       0.50000000       0.50000000       0.50000000       0.50000000       0.50000000       0.50000000       0.50000000       0.50000000       0.50000000       0.50000000       0.50000000       0.50000000       0.50000000       0.50000000       0.50000000       0.50000000       0.50000000       0.50000000       0.50000000       0.50000000       0.50000000       0.50000000       0.50000000       0.50000000
    INTERNAL  FACTOR  1.0
           0.50000000       0.50000000       0.50000000       0.50000000       0.50000000       0.50000000       0.50000000       0.50000000       0.50000000       0.50000000       0.50000000       0.50000000       0.50000000       0.50000000       0.50000000       0.50000000       0.50000000       0.50000000       0.50000000       0.50000000       0.50000000       0.50000000       0.50000000       0.50000000       0.50000000       0.50000000       0.50000000       0.50000000       0.50000000       0.50000000       0.50000000       0.50000000       0.50000000       0.50000000       0.50000000       0.50000000       0.50000000       0.50000000       0.50000000       0.50000000
    INTERNAL  FACTOR  1.0
           0.50000000       0.50000000       0.50000000       0.50000000       0.50000000       0.50000000       0.50000000       0.50000000       0.50000000       0.50000000       0.50000000       0.50000000       0.50000000       0.50000000       0.50000000       0.50000000       0.50000000       0.50000000       0.50000000       0.50000000       0.50000000       0.50000000       0.50000000       0.50000000       0.50000000       0.50000000       0.50000000       0.50000000       0.50000000       0.50000000       0.50000000       0.50000000       0.50000000       0.50000000       0.50000000       0.50000000       0.50000000       0.50000000       0.50000000       0.50000000
    INTERNAL  FACTOR  1.0
           0.50000000       0.50000000       0.50000000       0.50000000       0.50000000       0.50000000       0.50000000       0.50000000       0.50000000       0.50000000       0.50000000       0.50000000       0.50000000       0.50000000       0.50000000       0.50000000       0.50000000       0.50000000       0.50000000       0.50000000       0.50000000       0.50000000       0.50000000       0.50000000       0.50000000       0.50000000       0.50000000       0.50000000       0.50000000       0.50000000       0.50000000       0.50000000       0.50000000       0.50000000       0.50000000       0.50000000       0.50000000       0.50000000       0.50000000       0.50000000
    INTERNAL  FACTOR  1.0
           0.50000000       0.50000000       0.50000000       0.50000000       0.50000000       0.50000000       0.50000000       0.50000000       0.50000000       0.50000000       0.50000000       0.50000000       0.50000000       0.50000000       0.50000000       0.50000000       0.50000000       0.50000000       0.50000000       0.50000000       0.50000000       0.50000000       0.50000000       0.50000000       0.50000000       0.50000000       0.50000000       0.50000000       0.50000000       0.50000000       0.50000000       0.50000000       0.50000000       0.50000000       0.50000000       0.50000000       0.50000000       0.50000000       0.50000000       0.50000000
    INTERNAL  FACTOR  1.0
           0.50000000       0.50000000       0.50000000       0.50000000       0.50000000       0.50000000       0.50000000       0.50000000       0.50000000       0.50000000       0.50000000       0.50000000       0.50000000       0.50000000       0.50000000       0.50000000       0.50000000       0.50000000       0.50000000       0.50000000       0.50000000       0.50000000       0.50000000       0.50000000       0.50000000       0.50000000       0.50000000       0.50000000       0.50000000       0.50000000       0.50000000       0.50000000       0.50000000       0.50000000       0.50000000       0.50000000       0.50000000       0.50000000       0.50000000       0.50000000
    INTERNAL  FACTOR  1.0
           0.50000000       0.50000000       0.50000000       0.50000000       0.50000000       0.50000000       0.50000000       0.50000000       0.50000000       0.50000000       0.50000000       0.50000000       0.50000000       0.50000000       0.50000000       0.50000000       0.50000000       0.50000000       0.50000000       0.50000000       0.50000000       0.50000000       0.50000000       0.50000000       0.50000000       0.50000000       0.50000000       0.50000000       0.50000000       0.50000000       0.50000000       0.50000000       0.50000000       0.50000000       0.50000000       0.50000000       0.50000000       0.50000000       0.50000000       0.50000000
    INTERNAL  FACTOR  1.0
           0.50000000       0.50000000       0.50000000       0.50000000       0.50000000       0.50000000       0.50000000       0.50000000       0.50000000       0.50000000       0.50000000       0.50000000       0.50000000       0.50000000       0.50000000       0.50000000       0.50000000       0.50000000       0.50000000       0.50000000       0.50000000       0.50000000       0.50000000       0.50000000       0.50000000       0.50000000       0.50000000       0.50000000       0.50000000       0.50000000       0.50000000       0.50000000       0.50000000       0.50000000       0.50000000       0.50000000       0.50000000       0.50000000       0.50000000       0.50000000
END griddata

