# File generated by Flopy version 3.6.0.dev0 on 02/07/2024 at 20:16:54.
BEGIN options
END options

BEGIN griddata
  iconvert
    CONSTANT  1
  ss
    CONSTANT  1.00000000E-06
  sy  LAYERED
    INTERNAL  FACTOR  1.0
           0.20000000       0.20000000       0.00000000       0.00000000       0.00000000       0.00000000       0.00000000       0.00000000       0.00000000       0.00000000
           0.10000000       0.20000000       0.20000000       0.00000000       0.00000000       0.10000000       0.10000000       0.10000000       0.00000000       0.00000000
           0.00000000       0.10000000       0.20000000       0.20000000       0.10000000       0.10000000       0.10000000       0.10000000       0.00000000       0.00000000
           0.10000000       0.10000000       0.10000000       0.20000000       0.20000000       0.20000000       0.10000000       0.10000000       0.10000000       0.00000000
           0.10000000       0.10000000       0.10000000       0.20000000       0.20000000       0.20000000       0.20000000       0.20000000       0.20000000       0.20000000
           0.10000000       0.10000000       0.10000000       0.20000000       0.20000000       0.20000000       0.20000000       0.20000000       0.10000000       0.10000000
           0.10000000       0.10000000       0.10000000       0.20000000       0.20000000       0.20000000       0.20000000       0.20000000       0.10000000       0.00000000
           0.00000000       0.10000000       0.10000000       0.20000000       0.20000000       0.20000000       0.20000000       0.10000000       0.10000000       0.00000000
           0.00000000       0.10000000       0.10000000       0.20000000       0.20000000       0.20000000       0.20000000       0.10000000       0.10000000       0.00000000
           0.00000000       0.10000000       0.10000000       0.20000000       0.20000000       0.20000000       0.20000000       0.10000000       0.10000000       0.10000000
           0.00000000       0.10000000       0.10000000       0.20000000       0.20000000       0.20000000       0.20000000       0.10000000       0.10000000       0.00000000
           0.10000000       0.10000000       0.20000000       0.20000000       0.20000000       0.20000000       0.20000000       0.10000000       0.10000000       0.00000000
           0.20000000       0.20000000       0.20000000       0.20000000       0.20000000       0.20000000       0.20000000       0.20000000       0.20000000       0.00000000
           0.00000000       0.10000000       0.10000000       0.10000000       0.10000000       0.10000000       0.10000000       0.10000000       0.20000000       0.00000000
           0.00000000       0.00000000       0.10000000       0.10000000       0.10000000       0.10000000       0.00000000       0.00000000       0.00000000       0.00000000
    INTERNAL  FACTOR  1.0
           0.20000000       0.20000000       0.20000000       0.20000000       0.20000000       0.20000000       0.20000000       0.20000000       0.20000000       0.20000000
           0.20000000       0.20000000       0.20000000       0.20000000       0.20000000       0.20000000       0.20000000       0.20000000       0.20000000       0.20000000
           0.20000000       0.20000000       0.20000000       0.20000000       0.20000000       0.20000000       0.20000000       0.20000000       0.20000000       0.20000000
           0.20000000       0.20000000       0.20000000       0.20000000       0.20000000       0.20000000       0.20000000       0.20000000       0.20000000       0.20000000
           0.20000000       0.20000000       0.20000000       0.20000000       0.20000000       0.20000000       0.20000000       0.20000000       0.20000000       0.20000000
           0.20000000       0.20000000       0.20000000       0.20000000       0.20000000       0.20000000       0.20000000       0.20000000       0.20000000       0.20000000
           0.20000000       0.20000000       0.20000000       0.20000000       0.20000000       0.20000000       0.20000000       0.20000000       0.20000000       0.20000000
           0.20000000       0.20000000       0.20000000       0.20000000       0.20000000       0.20000000       0.20000000       0.20000000       0.20000000       0.20000000
           0.20000000       0.20000000       0.20000000       0.20000000       0.20000000       0.20000000       0.20000000       0.20000000       0.20000000       0.20000000
           0.20000000       0.20000000       0.20000000       0.20000000       0.20000000       0.20000000       0.20000000       0.20000000       0.20000000       0.20000000
           0.20000000       0.20000000       0.20000000       0.20000000       0.20000000       0.20000000       0.20000000       0.20000000       0.20000000       0.20000000
           0.20000000       0.20000000       0.20000000       0.20000000       0.20000000       0.20000000       0.20000000       0.20000000       0.20000000       0.20000000
           0.20000000       0.20000000       0.20000000       0.20000000       0.20000000       0.20000000       0.20000000       0.20000000       0.20000000       0.20000000
           0.20000000       0.20000000       0.20000000       0.20000000       0.20000000       0.20000000       0.20000000       0.20000000       0.20000000       0.20000000
           0.20000000       0.20000000       0.20000000       0.20000000       0.20000000       0.20000000       0.20000000       0.20000000       0.20000000       0.20000000
END griddata

BEGIN period  1
  STEADY-STATE
END period  1

BEGIN period  2
  TRANSIENT
END period  2

