# File generated by Flopy version 3.6.0.dev0 on 02/07/2024 at 20:16:54.
BEGIN options
END options

BEGIN timing
  TDIS6  ex-gwf-sfr-p01b.tdis
END timing

BEGIN models
  gwf6  ex-gwf-sfr-p01b.nam  ex-gwf-sfr-p01b
END models

BEGIN exchanges
END exchanges

BEGIN solutiongroup  1
  ims6  ex-gwf-sfr-p01b.ims  ex-gwf-sfr-p01b
END solutiongroup  1

