# File generated by Flopy version 3.6.0.dev0 on 02/07/2024 at 20:15:49.
BEGIN options
END options

BEGIN griddata
  alh
    CONSTANT      20.00000000
  ath1
    CONSTANT       2.00000000
  ath2
    CONSTANT       0.20000000
END griddata

