# File generated by Flopy version 3.6.0.dev0 on 02/07/2024 at 20:15:49.
BEGIN options
  PRINT_OPTION  summary
END options

BEGIN nonlinear
  OUTER_MAXIMUM  50
  UNDER_RELAXATION  dbd
  UNDER_RELAXATION_THETA       0.70000000
END nonlinear

BEGIN linear
  LINEAR_ACCELERATION  bicgstab
  RELAXATION_FACTOR       0.97000000
END linear

