# File generated by Flopy version 3.6.0.dev0 on 02/07/2024 at 20:15:49.
BEGIN options
  DIGITS  7
  PRINT_INPUT
END options

BEGIN continuous  FILEOUT  trans.lkt.obs.csv
  lkt1conc  CONCENTRATION  1
  lkt2conc  CONCENTRATION  2
  lkt1frommvr  FROM-MVR  1
  lkt2frommvr  FROM-MVR  2
  lkt1tomvr  TO-MVR  1
  lkt1bntomvr  TO-MVR  mylake1
END continuous  FILEOUT  trans.lkt.obs.csv

