# File generated by Flopy version 3.6.0.dev0 on 02/07/2024 at 20:14:58.
BEGIN options
END options

BEGIN dimensions
  MAXBOUND  45
END dimensions

BEGIN period  1
  1 1 15 4.47500000E+01
  1 2 15 4.47500000E+01
  1 3 15 4.47500000E+01
  1 4 15 4.47500000E+01
  1 5 15 4.47500000E+01
  1 6 15 4.47500000E+01
  1 7 15 4.47500000E+01
  1 8 15 4.47500000E+01
  1 9 15 4.47500000E+01
  1 10 15 4.47500000E+01
  1 11 15 4.47500000E+01
  1 12 15 4.47500000E+01
  1 13 15 4.47500000E+01
  1 14 15 4.47500000E+01
  1 15 15 4.47500000E+01
  2 1 15 4.47500000E+01
  2 2 15 4.47500000E+01
  2 3 15 4.47500000E+01
  2 4 15 4.47500000E+01
  2 5 15 4.47500000E+01
  2 6 15 4.47500000E+01
  2 7 15 4.47500000E+01
  2 8 15 4.47500000E+01
  2 9 15 4.47500000E+01
  2 10 15 4.47500000E+01
  2 11 15 4.47500000E+01
  2 12 15 4.47500000E+01
  2 13 15 4.47500000E+01
  2 14 15 4.47500000E+01
  2 15 15 4.47500000E+01
  3 1 15 4.47500000E+01
  3 2 15 4.47500000E+01
  3 3 15 4.47500000E+01
  3 4 15 4.47500000E+01
  3 5 15 4.47500000E+01
  3 6 15 4.47500000E+01
  3 7 15 4.47500000E+01
  3 8 15 4.47500000E+01
  3 9 15 4.47500000E+01
  3 10 15 4.47500000E+01
  3 11 15 4.47500000E+01
  3 12 15 4.47500000E+01
  3 13 15 4.47500000E+01
  3 14 15 4.47500000E+01
  3 15 15 4.47500000E+01
END period  1

