# File generated by Flopy version 3.6.0.dev0 on 02/07/2024 at 20:14:58.
BEGIN griddata
  strt  LAYERED
    INTERNAL  FACTOR  1.0
          49.75000000      49.39300000      49.03600000      48.67900000      48.32100000      47.96400000      47.60700000      47.25000000      46.89300000      46.53600000      46.17900000      45.82100000      45.46400000      45.10700000      44.75000000
          49.75000000      49.39300000      49.03600000      48.67900000      48.32100000      47.96400000      47.60700000      47.25000000      46.89300000      46.53600000      46.17900000      45.82100000      45.46400000      45.10700000      44.75000000
          49.75000000      49.39300000      49.03600000      48.67900000      48.32100000      47.96400000      47.60700000      47.25000000      46.89300000      46.53600000      46.17900000      45.82100000      45.46400000      45.10700000      44.75000000
          49.75000000      49.39300000      49.03600000      48.67900000      48.32100000      47.96400000      47.60700000      47.25000000      46.89300000      46.53600000      46.17900000      45.82100000      45.46400000      45.10700000      44.75000000
          49.75000000      49.39300000      49.03600000      48.67900000      48.32100000      47.96400000      47.60700000      47.25000000      46.89300000      46.53600000      46.17900000      45.82100000      45.46400000      45.10700000      44.75000000
          49.75000000      49.39300000      49.03600000      48.67900000      48.32100000      47.96400000      47.60700000      47.25000000      46.89300000      46.53600000      46.17900000      45.82100000      45.46400000      45.10700000      44.75000000
          49.75000000      49.39300000      49.03600000      48.67900000      48.32100000      47.96400000      47.60700000      47.25000000      46.89300000      46.53600000      46.17900000      45.82100000      45.46400000      45.10700000      44.75000000
          49.75000000      49.39300000      49.03600000      48.67900000      48.32100000      47.96400000      47.60700000      47.25000000      46.89300000      46.53600000      46.17900000      45.82100000      45.46400000      45.10700000      44.75000000
          49.75000000      49.39300000      49.03600000      48.67900000      48.32100000      47.96400000      47.60700000      47.25000000      46.89300000      46.53600000      46.17900000      45.82100000      45.46400000      45.10700000      44.75000000
          49.75000000      49.39300000      49.03600000      48.67900000      48.32100000      47.96400000      47.60700000      47.25000000      46.89300000      46.53600000      46.17900000      45.82100000      45.46400000      45.10700000      44.75000000
          49.75000000      49.39300000      49.03600000      48.67900000      48.32100000      47.96400000      47.60700000      47.25000000      46.89300000      46.53600000      46.17900000      45.82100000      45.46400000      45.10700000      44.75000000
          49.75000000      49.39300000      49.03600000      48.67900000      48.32100000      47.96400000      47.60700000      47.25000000      46.89300000      46.53600000      46.17900000      45.82100000      45.46400000      45.10700000      44.75000000
          49.75000000      49.39300000      49.03600000      48.67900000      48.32100000      47.96400000      47.60700000      47.25000000      46.89300000      46.53600000      46.17900000      45.82100000      45.46400000      45.10700000      44.75000000
          49.75000000      49.39300000      49.03600000      48.67900000      48.32100000      47.96400000      47.60700000      47.25000000      46.89300000      46.53600000      46.17900000      45.82100000      45.46400000      45.10700000      44.75000000
          49.75000000      49.39300000      49.03600000      48.67900000      48.32100000      47.96400000      47.60700000      47.25000000      46.89300000      46.53600000      46.17900000      45.82100000      45.46400000      45.10700000      44.75000000
    INTERNAL  FACTOR  1.0
          49.75000000      49.39300000      49.03600000      48.67900000      48.32100000      47.96400000      47.60700000      47.25000000      46.89300000      46.53600000      46.17900000      45.82100000      45.46400000      45.10700000      44.75000000
          49.75000000      49.39300000      49.03600000      48.67900000      48.32100000      47.96400000      47.60700000      47.25000000      46.89300000      46.53600000      46.17900000      45.82100000      45.46400000      45.10700000      44.75000000
          49.75000000      49.39300000      49.03600000      48.67900000      48.32100000      47.96400000      47.60700000      47.25000000      46.89300000      46.53600000      46.17900000      45.82100000      45.46400000      45.10700000      44.75000000
          49.75000000      49.39300000      49.03600000      48.67900000      48.32100000      47.96400000      47.60700000      47.25000000      46.89300000      46.53600000      46.17900000      45.82100000      45.46400000      45.10700000      44.75000000
          49.75000000      49.39300000      49.03600000      48.67900000      48.32100000      47.96400000      47.60700000      47.25000000      46.89300000      46.53600000      46.17900000      45.82100000      45.46400000      45.10700000      44.75000000
          49.75000000      49.39300000      49.03600000      48.67900000      48.32100000      47.96400000      47.60700000      47.25000000      46.89300000      46.53600000      46.17900000      45.82100000      45.46400000      45.10700000      44.75000000
          49.75000000      49.39300000      49.03600000      48.67900000      48.32100000      47.96400000      47.60700000      47.25000000      46.89300000      46.53600000      46.17900000      45.82100000      45.46400000      45.10700000      44.75000000
          49.75000000      49.39300000      49.03600000      48.67900000      48.32100000      47.96400000      47.60700000      47.25000000      46.89300000      46.53600000      46.17900000      45.82100000      45.46400000      45.10700000      44.75000000
          49.75000000      49.39300000      49.03600000      48.67900000      48.32100000      47.96400000      47.60700000      47.25000000      46.89300000      46.53600000      46.17900000      45.82100000      45.46400000      45.10700000      44.75000000
          49.75000000      49.39300000      49.03600000      48.67900000      48.32100000      47.96400000      47.60700000      47.25000000      46.89300000      46.53600000      46.17900000      45.82100000      45.46400000      45.10700000      44.75000000
          49.75000000      49.39300000      49.03600000      48.67900000      48.32100000      47.96400000      47.60700000      47.25000000      46.89300000      46.53600000      46.17900000      45.82100000      45.46400000      45.10700000      44.75000000
          49.75000000      49.39300000      49.03600000      48.67900000      48.32100000      47.96400000      47.60700000      47.25000000      46.89300000      46.53600000      46.17900000      45.82100000      45.46400000      45.10700000      44.75000000
          49.75000000      49.39300000      49.03600000      48.67900000      48.32100000      47.96400000      47.60700000      47.25000000      46.89300000      46.53600000      46.17900000      45.82100000      45.46400000      45.10700000      44.75000000
          49.75000000      49.39300000      49.03600000      48.67900000      48.32100000      47.96400000      47.60700000      47.25000000      46.89300000      46.53600000      46.17900000      45.82100000      45.46400000      45.10700000      44.75000000
          49.75000000      49.39300000      49.03600000      48.67900000      48.32100000      47.96400000      47.60700000      47.25000000      46.89300000      46.53600000      46.17900000      45.82100000      45.46400000      45.10700000      44.75000000
    INTERNAL  FACTOR  1.0
          49.75000000      49.39300000      49.03600000      48.67900000      48.32100000      47.96400000      47.60700000      47.25000000      46.89300000      46.53600000      46.17900000      45.82100000      45.46400000      45.10700000      44.75000000
          49.75000000      49.39300000      49.03600000      48.67900000      48.32100000      47.96400000      47.60700000      47.25000000      46.89300000      46.53600000      46.17900000      45.82100000      45.46400000      45.10700000      44.75000000
          49.75000000      49.39300000      49.03600000      48.67900000      48.32100000      47.96400000      47.60700000      47.25000000      46.89300000      46.53600000      46.17900000      45.82100000      45.46400000      45.10700000      44.75000000
          49.75000000      49.39300000      49.03600000      48.67900000      48.32100000      47.96400000      47.60700000      47.25000000      46.89300000      46.53600000      46.17900000      45.82100000      45.46400000      45.10700000      44.75000000
          49.75000000      49.39300000      49.03600000      48.67900000      48.32100000      47.96400000      47.60700000      47.25000000      46.89300000      46.53600000      46.17900000      45.82100000      45.46400000      45.10700000      44.75000000
          49.75000000      49.39300000      49.03600000      48.67900000      48.32100000      47.96400000      47.60700000      47.25000000      46.89300000      46.53600000      46.17900000      45.82100000      45.46400000      45.10700000      44.75000000
          49.75000000      49.39300000      49.03600000      48.67900000      48.32100000      47.96400000      47.60700000      47.25000000      46.89300000      46.53600000      46.17900000      45.82100000      45.46400000      45.10700000      44.75000000
          49.75000000      49.39300000      49.03600000      48.67900000      48.32100000      47.96400000      47.60700000      47.25000000      46.89300000      46.53600000      46.17900000      45.82100000      45.46400000      45.10700000      44.75000000
          49.75000000      49.39300000      49.03600000      48.67900000      48.32100000      47.96400000      47.60700000      47.25000000      46.89300000      46.53600000      46.17900000      45.82100000      45.46400000      45.10700000      44.75000000
          49.75000000      49.39300000      49.03600000      48.67900000      48.32100000      47.96400000      47.60700000      47.25000000      46.89300000      46.53600000      46.17900000      45.82100000      45.46400000      45.10700000      44.75000000
          49.75000000      49.39300000      49.03600000      48.67900000      48.32100000      47.96400000      47.60700000      47.25000000      46.89300000      46.53600000      46.17900000      45.82100000      45.46400000      45.10700000      44.75000000
          49.75000000      49.39300000      49.03600000      48.67900000      48.32100000      47.96400000      47.60700000      47.25000000      46.89300000      46.53600000      46.17900000      45.82100000      45.46400000      45.10700000      44.75000000
          49.75000000      49.39300000      49.03600000      48.67900000      48.32100000      47.96400000      47.60700000      47.25000000      46.89300000      46.53600000      46.17900000      45.82100000      45.46400000      45.10700000      44.75000000
          49.75000000      49.39300000      49.03600000      48.67900000      48.32100000      47.96400000      47.60700000      47.25000000      46.89300000      46.53600000      46.17900000      45.82100000      45.46400000      45.10700000      44.75000000
          49.75000000      49.39300000      49.03600000      48.67900000      48.32100000      47.96400000      47.60700000      47.25000000      46.89300000      46.53600000      46.17900000      45.82100000      45.46400000      45.10700000      44.75000000
END griddata

