# File generated by Flopy version 3.6.0.dev0 on 02/07/2024 at 20:14:58.
BEGIN options
  PRINT_FLOWS
  MODELNAMES
END options

BEGIN dimensions
  MAXMVR  2
  MAXPACKAGES  2
END dimensions

BEGIN packages
  gwf-lgr-parent  SFR-parent
  gwf-lgr-child  SFR-child
END packages

BEGIN period  1
  gwf-lgr-parent  SFR-parent  8  gwf-lgr-child  SFR-child  1  FACTOR       1.00000000
  gwf-lgr-child  SFR-child  89  gwf-lgr-parent  SFR-parent  9  FACTOR       1.00000000
END period  1

