# File generated by Flopy version 3.6.0.dev0 on 02/07/2024 at 20:15:49.
BEGIN options
  READASARRAYS
END options

BEGIN period  1
  recharge
    CONSTANT       0.00479000
END period  1

