# File generated by Flopy version 3.6.0.dev0 on 02/07/2024 at 20:15:49.
BEGIN options
  PRINT_OPTION  summary
END options

BEGIN nonlinear
  OUTER_DVCLOSE       0.01000000
  OUTER_MAXIMUM  1000
END nonlinear

BEGIN linear
  INNER_MAXIMUM  50
  INNER_DVCLOSE       0.01000000
  RELAXATION_FACTOR       0.99000000
END linear

