# File generated by Flopy version 3.6.0.dev0 on 02/07/2024 at 20:14:51.
BEGIN griddata
  strt
    CONSTANT     -10.70000000
END griddata

