# File generated by Flopy version 3.6.0.dev0 on 02/07/2024 at 20:14:51.
BEGIN options
  SAVE_SPECIFIC_DISCHARGE
END options

BEGIN griddata
  icelltype  LAYERED
    CONSTANT  1
    CONSTANT  0
    CONSTANT  0
  k  LAYERED
    CONSTANT  1.80000000E-05
    CONSTANT  3.50000000E-10
    CONSTANT  3.10000000E-05
END griddata

