# File generated by Flopy version 3.6.0.dev0 on 02/07/2024 at 20:14:51.
BEGIN options
  DIGITS  10
  PRINT_INPUT
END options

BEGIN continuous  FILEOUT  gwf_calib_obs.csv
  w3_1_1  HEAD  3 1 12
END continuous  FILEOUT  gwf_calib_obs.csv

