# File generated by Flopy version 3.3.3 on 02/05/2021 at 13:07:20.
BEGIN options
  PRINT_OPTION  summary
  COMPLEXITY  complex
END options

BEGIN nonlinear
  OUTER_DVCLOSE       1e-4
  OUTER_MAXIMUM  300
  UNDER_RELAXATION  simple
  UNDER_RELAXATION_GAMMA       0.9
END nonlinear

BEGIN linear
  INNER_MAXIMUM  500
  INNER_DVCLOSE       1e-5
  inner_rclose  1e-2
  LINEAR_ACCELERATION  bicgstab
  RELAXATION_FACTOR       0.97000000
END linear
