# File generated by Flopy version 3.6.0.dev0 on 02/07/2024 at 20:16:52.
BEGIN options
  TIME_UNITS  seconds
END options

BEGIN dimensions
  NPER  3
END dimensions

BEGIN perioddata
       0.00000000  1       1.00000000
  1.57788000E+09  50       1.10000000
  1.57788000E+09  50       1.10000000
END perioddata

