# File generated by Flopy version 3.6.0.dev0 on 02/07/2024 at 20:16:52.
BEGIN options
  BUDGET  FILEOUT  ex-gwf-sfr-p01.cbc
  HEAD  FILEOUT  ex-gwf-sfr-p01.hds
END options

BEGIN period  1
  SAVE  HEAD  LAST
  SAVE  BUDGET  LAST
END period  1

