# File generated by Flopy version 3.9.1 on 03/26/2025 at 18:02:36.
BEGIN options
  SAVE_SPECIFIC_DISCHARGE
  SAVE_SATURATION
END options

BEGIN griddata
  icelltype
    CONSTANT  0
  k
    CONSTANT       0.10000000
END griddata

