# File generated by Flopy version 3.9.1 on 03/26/2025 at 18:02:36.
BEGIN options
  TIME_UNITS  seconds
END options

BEGIN dimensions
  NPER  1
END dimensions

BEGIN perioddata
     120.00000000  1       1.00000000
END perioddata

