# File generated by Flopy version 3.9.1 on 03/26/2025 at 18:02:37.
BEGIN options
END options

BEGIN dimensions
  MAXBOUND  1
END dimensions

BEGIN period  1
  1 1 120 1.00000000E+00
END period  1

