# File generated by Flopy version 3.9.1 on 03/26/2025 at 18:02:36.
BEGIN options
END options

BEGIN griddata
  strt
    CONSTANT       1.00000000
END griddata

