# File generated by Flopy version 3.6.0.dev0 on 02/07/2024 at 20:15:54.
BEGIN options
  TIME_UNITS  days
END options

BEGIN dimensions
  NPER  1
END dimensions

BEGIN perioddata
   10000.00000000  1000       1.00000000
END perioddata

