# File generated by Flopy version 3.6.0.dev0 on 02/07/2024 at 20:15:54.
BEGIN griddata
  strt
    CONSTANT      20.00000000
END griddata

