# File generated by Flopy version 3.6.0.dev0 on 02/07/2024 at 20:15:54.
BEGIN options
END options

BEGIN packages
  DIS6  trans.dis  dis
  MST6  trans.mst  mst
  IC6  trans.ic  ic
  ADV6  trans.adv  adv
  OC6  trans.oc  oc
END packages

