# File generated by Flopy version 3.6.0.dev0 on 02/07/2024 at 20:15:26.
BEGIN options
  SAVE_FLOWS
  SAVE_SPECIFIC_DISCHARGE
  SAVE_SATURATION
END options

BEGIN griddata
  icelltype
    CONSTANT  0
  k
    CONSTANT       0.00800000
  k33
    CONSTANT       0.00800000
END griddata

