# File generated by Flopy version 3.6.0.dev0 on 02/07/2024 at 20:14:55.
BEGIN options
  SAVE_FLOWS
END options

BEGIN packages
  DIS6  ex-gwf-hanir.dis  dis
  NPF6  ex-gwf-hanir.npf  npf
  IC6  ex-gwf-hanir.ic  ic
  CHD6  ex-gwf-hanir.chd  chd
  WEL6  ex-gwf-hanir.wel  wel
  OC6  ex-gwf-hanir.oc  oc
END packages

