# File generated by Flopy version 3.6.0.dev0 on 02/07/2024 at 20:14:55.
BEGIN options
END options

BEGIN timing
  TDIS6  ex-gwf-hanir.tdis
END timing

BEGIN models
  gwf6  ex-gwf-hanir.nam  ex-gwf-hanir
END models

BEGIN exchanges
END exchanges

BEGIN solutiongroup  1
  ims6  ex-gwf-hanir.ims  ex-gwf-hanir
END solutiongroup  1

