# File generated by Flopy version 3.6.0.dev0 on 02/07/2024 at 20:15:35.
BEGIN options
  DIGITS  10
  PRINT_INPUT
END options

BEGIN continuous  FILEOUT  trans.obs.csv
  X008  CONCENTRATION  1 1 51
END continuous  FILEOUT  trans.obs.csv

