# File generated by Flopy version 3.6.0.dev0 on 02/07/2024 at 20:15:35.
BEGIN options
  PRINT_OPTION  summary
END options

BEGIN nonlinear
  OUTER_DVCLOSE  1.00000000E-08
END nonlinear

BEGIN linear
  INNER_DVCLOSE  1.00000000E-08
  LINEAR_ACCELERATION  bicgstab
END linear

