# File generated by Flopy version 3.6.0.dev0 on 02/07/2024 at 20:16:19.
BEGIN options
  SAVE_FLOWS
  NEWTON
END options

BEGIN packages
  DIS6  gwf-uzt-2d-mf6.dis  dis
  IC6  gwf-uzt-2d-mf6.ic  ic
  NPF6  gwf-uzt-2d-mf6.npf  npf
  STO6  gwf-uzt-2d-mf6.sto  sto
  CHD6  gwf-uzt-2d-mf6.chd  chd-1
  UZF6  gwf-uzt-2d-mf6.uzf  uzf-1
  OC6  gwf-uzt-2d-mf6.oc  oc
END packages

