# File generated by Flopy version 3.6.0.dev0 on 02/07/2024 at 20:16:19.
BEGIN options
  BUDGET  FILEOUT  gwf-uzt-2d-mf6.bud
  HEAD  FILEOUT  gwf-uzt-2d-mf6.hds
  HEAD  PRINT_FORMAT  COLUMNS  10  WIDTH  15  DIGITS  6  GENERAL
END options

BEGIN period  1
  SAVE  HEAD  ALL
  SAVE  BUDGET  ALL
  PRINT  HEAD  LAST
  PRINT  BUDGET  ALL
END period  1

