# File generated by Flopy version 3.6.0.dev0 on 02/07/2024 at 20:16:19.
BEGIN griddata
  strt  LAYERED
    INTERNAL  FACTOR  1.0
           1.62500000       1.62500000       1.62500000       1.62500000       1.62500000       1.62500000       1.62500000       1.62500000       1.62500000       1.62500000       1.62500000       1.62500000       1.62500000       1.62500000       1.62500000       1.62500000       1.62500000       1.62500000       1.62500000       1.62500000       1.62500000       1.62500000       1.62500000       1.62500000       1.62500000       1.62500000       1.62500000       1.62500000       1.62500000       1.62500000       1.62500000       1.62500000       1.62500000       1.62500000       1.62500000       1.62500000       1.62500000       1.62500000       1.62500000       1.62500000
    INTERNAL  FACTOR  1.0
           1.62500000       1.62500000       1.62500000       1.62500000       1.62500000       1.62500000       1.62500000       1.62500000       1.62500000       1.62500000       1.62500000       1.62500000       1.62500000       1.62500000       1.62500000       1.62500000       1.62500000       1.62500000       1.62500000       1.62500000       1.62500000       1.62500000       1.62500000       1.62500000       1.62500000       1.62500000       1.62500000       1.62500000       1.62500000       1.62500000       1.62500000       1.62500000       1.62500000       1.62500000       1.62500000       1.62500000       1.62500000       1.62500000       1.62500000       1.62500000
    INTERNAL  FACTOR  1.0
           1.62500000       1.62500000       1.62500000       1.62500000       1.62500000       1.62500000       1.62500000       1.62500000       1.62500000       1.62500000       1.62500000       1.62500000       1.62500000       1.62500000       1.62500000       1.62500000       1.62500000       1.62500000       1.62500000       1.62500000       1.62500000       1.62500000       1.62500000       1.62500000       1.62500000       1.62500000       1.62500000       1.62500000       1.62500000       1.62500000       1.62500000       1.62500000       1.62500000       1.62500000       1.62500000       1.62500000       1.62500000       1.62500000       1.62500000       1.62500000
    INTERNAL  FACTOR  1.0
           1.62500000       1.62500000       1.62500000       1.62500000       1.62500000       1.62500000       1.62500000       1.62500000       1.62500000       1.62500000       1.62500000       1.62500000       1.62500000       1.62500000       1.62500000       1.62500000       1.62500000       1.62500000       1.62500000       1.62500000       1.62500000       1.62500000       1.62500000       1.62500000       1.62500000       1.62500000       1.62500000       1.62500000       1.62500000       1.62500000       1.62500000       1.62500000       1.62500000       1.62500000       1.62500000       1.62500000       1.62500000       1.62500000       1.62500000       1.62500000
    INTERNAL  FACTOR  1.0
           1.62500000       1.62500000       1.62500000       1.62500000       1.62500000       1.62500000       1.62500000       1.62500000       1.62500000       1.62500000       1.62500000       1.62500000       1.62500000       1.62500000       1.62500000       1.62500000       1.62500000       1.62500000       1.62500000       1.62500000       1.62500000       1.62500000       1.62500000       1.62500000       1.62500000       1.62500000       1.62500000       1.62500000       1.62500000       1.62500000       1.62500000       1.62500000       1.62500000       1.62500000       1.62500000       1.62500000       1.62500000       1.62500000       1.62500000       1.62500000
    INTERNAL  FACTOR  1.0
           1.62500000       1.62500000       1.62500000       1.62500000       1.62500000       1.62500000       1.62500000       1.62500000       1.62500000       1.62500000       1.62500000       1.62500000       1.62500000       1.62500000       1.62500000       1.62500000       1.62500000       1.62500000       1.62500000       1.62500000       1.62500000       1.62500000       1.62500000       1.62500000       1.62500000       1.62500000       1.62500000       1.62500000       1.62500000       1.62500000       1.62500000       1.62500000       1.62500000       1.62500000       1.62500000       1.62500000       1.62500000       1.62500000       1.62500000       1.62500000
    INTERNAL  FACTOR  1.0
           1.62500000       1.62500000       1.62500000       1.62500000       1.62500000       1.62500000       1.62500000       1.62500000       1.62500000       1.62500000       1.62500000       1.62500000       1.62500000       1.62500000       1.62500000       1.62500000       1.62500000       1.62500000       1.62500000       1.62500000       1.62500000       1.62500000       1.62500000       1.62500000       1.62500000       1.62500000       1.62500000       1.62500000       1.62500000       1.62500000       1.62500000       1.62500000       1.62500000       1.62500000       1.62500000       1.62500000       1.62500000       1.62500000       1.62500000       1.62500000
    INTERNAL  FACTOR  1.0
           1.62500000       1.62500000       1.62500000       1.62500000       1.62500000       1.62500000       1.62500000       1.62500000       1.62500000       1.62500000       1.62500000       1.62500000       1.62500000       1.62500000       1.62500000       1.62500000       1.62500000       1.62500000       1.62500000       1.62500000       1.62500000       1.62500000       1.62500000       1.62500000       1.62500000       1.62500000       1.62500000       1.62500000       1.62500000       1.62500000       1.62500000       1.62500000       1.62500000       1.62500000       1.62500000       1.62500000       1.62500000       1.62500000       1.62500000       1.62500000
    INTERNAL  FACTOR  1.0
           1.62500000       1.62500000       1.62500000       1.62500000       1.62500000       1.62500000       1.62500000       1.62500000       1.62500000       1.62500000       1.62500000       1.62500000       1.62500000       1.62500000       1.62500000       1.62500000       1.62500000       1.62500000       1.62500000       1.62500000       1.62500000       1.62500000       1.62500000       1.62500000       1.62500000       1.62500000       1.62500000       1.62500000       1.62500000       1.62500000       1.62500000       1.62500000       1.62500000       1.62500000       1.62500000       1.62500000       1.62500000       1.62500000       1.62500000       1.62500000
    INTERNAL  FACTOR  1.0
           1.62500000       1.62500000       1.62500000       1.62500000       1.62500000       1.62500000       1.62500000       1.62500000       1.62500000       1.62500000       1.62500000       1.62500000       1.62500000       1.62500000       1.62500000       1.62500000       1.62500000       1.62500000       1.62500000       1.62500000       1.62500000       1.62500000       1.62500000       1.62500000       1.62500000       1.62500000       1.62500000       1.62500000       1.62500000       1.62500000       1.62500000       1.62500000       1.62500000       1.62500000       1.62500000       1.62500000       1.62500000       1.62500000       1.62500000       1.62500000
    INTERNAL  FACTOR  1.0
           1.62500000       1.62500000       1.62500000       1.62500000       1.62500000       1.62500000       1.62500000       1.62500000       1.62500000       1.62500000       1.62500000       1.62500000       1.62500000       1.62500000       1.62500000       1.62500000       1.62500000       1.62500000       1.62500000       1.62500000       1.62500000       1.62500000       1.62500000       1.62500000       1.62500000       1.62500000       1.62500000       1.62500000       1.62500000       1.62500000       1.62500000       1.62500000       1.62500000       1.62500000       1.62500000       1.62500000       1.62500000       1.62500000       1.62500000       1.62500000
    INTERNAL  FACTOR  1.0
           1.62500000       1.62500000       1.62500000       1.62500000       1.62500000       1.62500000       1.62500000       1.62500000       1.62500000       1.62500000       1.62500000       1.62500000       1.62500000       1.62500000       1.62500000       1.62500000       1.62500000       1.62500000       1.62500000       1.62500000       1.62500000       1.62500000       1.62500000       1.62500000       1.62500000       1.62500000       1.62500000       1.62500000       1.62500000       1.62500000       1.62500000       1.62500000       1.62500000       1.62500000       1.62500000       1.62500000       1.62500000       1.62500000       1.62500000       1.62500000
    INTERNAL  FACTOR  1.0
           1.62500000       1.62500000       1.62500000       1.62500000       1.62500000       1.62500000       1.62500000       1.62500000       1.62500000       1.62500000       1.62500000       1.62500000       1.62500000       1.62500000       1.62500000       1.62500000       1.62500000       1.62500000       1.62500000       1.62500000       1.62500000       1.62500000       1.62500000       1.62500000       1.62500000       1.62500000       1.62500000       1.62500000       1.62500000       1.62500000       1.62500000       1.62500000       1.62500000       1.62500000       1.62500000       1.62500000       1.62500000       1.62500000       1.62500000       1.62500000
    INTERNAL  FACTOR  1.0
           1.62500000       1.62500000       1.62500000       1.62500000       1.62500000       1.62500000       1.62500000       1.62500000       1.62500000       1.62500000       1.62500000       1.62500000       1.62500000       1.62500000       1.62500000       1.62500000       1.62500000       1.62500000       1.62500000       1.62500000       1.62500000       1.62500000       1.62500000       1.62500000       1.62500000       1.62500000       1.62500000       1.62500000       1.62500000       1.62500000       1.62500000       1.62500000       1.62500000       1.62500000       1.62500000       1.62500000       1.62500000       1.62500000       1.62500000       1.62500000
    INTERNAL  FACTOR  1.0
           1.62500000       1.62500000       1.62500000       1.62500000       1.62500000       1.62500000       1.62500000       1.62500000       1.62500000       1.62500000       1.62500000       1.62500000       1.62500000       1.62500000       1.62500000       1.62500000       1.62500000       1.62500000       1.62500000       1.62500000       1.62500000       1.62500000       1.62500000       1.62500000       1.62500000       1.62500000       1.62500000       1.62500000       1.62500000       1.62500000       1.62500000       1.62500000       1.62500000       1.62500000       1.62500000       1.62500000       1.62500000       1.62500000       1.62500000       1.62500000
    INTERNAL  FACTOR  1.0
           1.62500000       1.62500000       1.62500000       1.62500000       1.62500000       1.62500000       1.62500000       1.62500000       1.62500000       1.62500000       1.62500000       1.62500000       1.62500000       1.62500000       1.62500000       1.62500000       1.62500000       1.62500000       1.62500000       1.62500000       1.62500000       1.62500000       1.62500000       1.62500000       1.62500000       1.62500000       1.62500000       1.62500000       1.62500000       1.62500000       1.62500000       1.62500000       1.62500000       1.62500000       1.62500000       1.62500000       1.62500000       1.62500000       1.62500000       1.62500000
    INTERNAL  FACTOR  1.0
           1.62500000       1.62500000       1.62500000       1.62500000       1.62500000       1.62500000       1.62500000       1.62500000       1.62500000       1.62500000       1.62500000       1.62500000       1.62500000       1.62500000       1.62500000       1.62500000       1.62500000       1.62500000       1.62500000       1.62500000       1.62500000       1.62500000       1.62500000       1.62500000       1.62500000       1.62500000       1.62500000       1.62500000       1.62500000       1.62500000       1.62500000       1.62500000       1.62500000       1.62500000       1.62500000       1.62500000       1.62500000       1.62500000       1.62500000       1.62500000
    INTERNAL  FACTOR  1.0
           1.62500000       1.62500000       1.62500000       1.62500000       1.62500000       1.62500000       1.62500000       1.62500000       1.62500000       1.62500000       1.62500000       1.62500000       1.62500000       1.62500000       1.62500000       1.62500000       1.62500000       1.62500000       1.62500000       1.62500000       1.62500000       1.62500000       1.62500000       1.62500000       1.62500000       1.62500000       1.62500000       1.62500000       1.62500000       1.62500000       1.62500000       1.62500000       1.62500000       1.62500000       1.62500000       1.62500000       1.62500000       1.62500000       1.62500000       1.62500000
    INTERNAL  FACTOR  1.0
           1.62500000       1.62500000       1.62500000       1.62500000       1.62500000       1.62500000       1.62500000       1.62500000       1.62500000       1.62500000       1.62500000       1.62500000       1.62500000       1.62500000       1.62500000       1.62500000       1.62500000       1.62500000       1.62500000       1.62500000       1.62500000       1.62500000       1.62500000       1.62500000       1.62500000       1.62500000       1.62500000       1.62500000       1.62500000       1.62500000       1.62500000       1.62500000       1.62500000       1.62500000       1.62500000       1.62500000       1.62500000       1.62500000       1.62500000       1.62500000
    INTERNAL  FACTOR  1.0
           1.62500000       1.62500000       1.62500000       1.62500000       1.62500000       1.62500000       1.62500000       1.62500000       1.62500000       1.62500000       1.62500000       1.62500000       1.62500000       1.62500000       1.62500000       1.62500000       1.62500000       1.62500000       1.62500000       1.62500000       1.62500000       1.62500000       1.62500000       1.62500000       1.62500000       1.62500000       1.62500000       1.62500000       1.62500000       1.62500000       1.62500000       1.62500000       1.62500000       1.62500000       1.62500000       1.62500000       1.62500000       1.62500000       1.62500000       1.62500000
END griddata

