# File generated by Flopy version 3.6.0.dev0 on 02/07/2024 at 20:16:19.
BEGIN options
END options

BEGIN griddata
  porosity
    CONSTANT       0.45000000
END griddata

