# File generated by Flopy version 3.6.0.dev0 on 02/07/2024 at 20:16:19.
BEGIN options
  SAVE_FLOWS
END options

BEGIN packages
  DIS6  gwt-uzt-2d-mf6.dis  dis
  IC6  gwt-uzt-2d-mf6.ic  ic
  ADV6  gwt-uzt-2d-mf6.adv  adv
  DSP6  gwt-uzt-2d-mf6.dsp  dsp-1
  MST6  gwt-uzt-2d-mf6.mst  mst-1
  SSM6  gwt-uzt-2d-mf6.ssm  ssm
  UZT6  gwt-uzt-2d-mf6.uzt  uzf-1
  OC6  gwt-uzt-2d-mf6.oc  oc
END packages

