# File generated by Flopy version 3.6.0.dev0 on 02/07/2024 at 20:15:40.
BEGIN options
  TIME_UNITS  days
END options

BEGIN dimensions
  NPER  2
END dimensions

BEGIN perioddata
     912.50000000  365       1.00000000
    2737.50000000  1095       1.00000000
END perioddata

