# File generated by Flopy version 3.6.0.dev0 on 02/07/2024 at 20:15:40.
BEGIN options
END options

BEGIN timing
  TDIS6  ex-gwt-mt3dms-p06.tdis
END timing

BEGIN models
  gwf6  gwf-p06-mf6.nam  gwf-p06-mf6
  gwt6  gwt_p06-mf6.nam  gwt_p06-mf6
END models

BEGIN exchanges
  GWF6-GWT6  p06-mf6.gwfgwt  gwf-p06-mf6  gwt_p06-mf6
END exchanges

BEGIN solutiongroup  1
  ims6  gwf-p06-mf6.ims  gwf-p06-mf6
  ims6  gwt_p06-mf6.ims  gwt_p06-mf6
END solutiongroup  1

