# File generated by Flopy version 3.6.0.dev0 on 02/07/2024 at 20:14:55.
BEGIN options
  BUDGET  FILEOUT  ex-gwf-hanix.cbc
  HEAD  FILEOUT  ex-gwf-hanix.hds
END options

BEGIN period  1
  SAVE  HEAD  ALL
  SAVE  BUDGET  ALL
END period  1

