# File generated by Flopy version 3.6.0.dev0 on 02/07/2024 at 20:14:55.
BEGIN options
END options

BEGIN timing
  TDIS6  ex-gwf-hanix.tdis
END timing

BEGIN models
  gwf6  ex-gwf-hanix.nam  ex-gwf-hanix
END models

BEGIN exchanges
END exchanges

BEGIN solutiongroup  1
  ims6  ex-gwf-hanix.ims  ex-gwf-hanix
END solutiongroup  1

