# File generated by Flopy version 3.6.0.dev0 on 02/07/2024 at 20:14:50.
BEGIN options
  XT3D
  SAVE_SPECIFIC_DISCHARGE
END options

BEGIN griddata
  icelltype
    CONSTANT  0
  k
    CONSTANT      10.00000000
  k33
    CONSTANT       0.20000000
END griddata

