# File generated by Flopy version 3.6.0.dev0 on 02/07/2024 at 20:14:50.
BEGIN options
  SAVE_FLOWS
END options

BEGIN packages
  DISV6  ex-gwf-disvmesh.disv  disv
  NPF6  ex-gwf-disvmesh.npf  npf
  IC6  ex-gwf-disvmesh.ic  ic
  GHB6  ex-gwf-disvmesh.ghb  ghb
  RCH6  ex-gwf-disvmesh.rch  rch
  OC6  ex-gwf-disvmesh.oc  oc
END packages

