# File generated by Flopy version 3.6.0.dev0 on 02/07/2024 at 20:14:50.
BEGIN options
END options

BEGIN timing
  TDIS6  ex-gwf-disvmesh.tdis
END timing

BEGIN models
  gwf6  ex-gwf-disvmesh.nam  ex-gwf-disvmesh
END models

BEGIN exchanges
END exchanges

BEGIN solutiongroup  1
  ims6  ex-gwf-disvmesh.ims  ex-gwf-disvmesh
END solutiongroup  1

