# File generated by Flopy version 3.6.0.dev0 on 02/07/2024 at 20:15:37.
BEGIN options
END options

BEGIN dimensions
  NLAY  1
  NROW  100
  NCOL  100
END dimensions

BEGIN griddata
  delr
    CONSTANT      10.00000000
  delc
    CONSTANT      10.00000000
  top
    CONSTANT       0.00000000
  botm
    CONSTANT      -1.00000000
  idomain
    CONSTANT  1
END griddata

