# File generated by Flopy version 3.6.0.dev0 on 02/07/2024 at 20:15:55.
BEGIN options
  DENSEREF       0.00106500
END options

BEGIN dimensions
  NRHOSPECIES  1
END dimensions

BEGIN packagedata
  1       0.64600000       0.00000000  trans  concentration
END packagedata

