# File generated by Flopy version 3.6.0.dev0 on 02/07/2024 at 20:15:55.
BEGIN options
END options

BEGIN dimensions
  MAXBOUND  67
END dimensions

BEGIN period  1
  1 1 1  1.09945430E-04
  1 1 2  1.09894087E-04
  1 1 3  1.09913619E-04
  1 1 4  1.10041345E-04
  1 1 5  1.10001256E-04
  1 1 6  1.10078492E-04
  1 1 7  1.09955508E-04
  1 1 8  1.09955824E-04
  1 1 9  1.09936029E-04
  1 1 10  1.10092973E-04
  1 1 11  1.09879477E-04
  1 1 12  1.10014963E-04
  1 1 13  1.09971585E-04
  1 1 14  1.10040003E-04
  1 1 15  1.10093303E-04
  1 1 16  1.10048074E-04
  1 1 17  1.10029348E-04
  1 1 18  1.10122051E-04
  1 1 19  1.09902748E-04
  1 1 20  1.10005647E-04
  1 1 21  1.09882570E-04
  1 1 22  1.09884396E-04
  1 1 23  1.09956662E-04
  1 1 24  1.09983618E-04
  1 1 25  1.10033920E-04
  1 1 26  1.09909918E-04
  1 1 27  1.09933918E-04
  1 1 28  1.09966612E-04
  1 1 29  1.10019201E-04
  1 1 30  1.10112602E-04
  1 1 31  1.09938354E-04
  1 1 32  1.10025853E-04
  1 1 33  1.09913718E-04
  1 1 34  1.10030747E-04
  1 1 35  1.09921900E-04
  1 1 36  1.10008513E-04
  1 1 37  1.09886738E-04
  1 1 38  1.09937748E-04
  1 1 39  1.09889911E-04
  1 1 40  1.10014860E-04
  1 1 41  1.10105160E-04
  1 1 42  1.10109156E-04
  1 1 43  1.10027739E-04
  1 1 44  1.10083029E-04
  1 1 45  1.10061386E-04
  1 1 46  1.09996103E-04
  1 1 47  1.10125609E-04
  1 1 48  1.10040641E-04
  1 1 49  1.09977627E-04
  1 1 50  1.09921126E-04
  1 1 51  1.10007618E-04
  1 1 52  1.09916442E-04
  1 1 53  1.10091629E-04
  1 1 54  1.09904872E-04
  1 1 55  1.10074854E-04
  1 1 56  1.10026975E-04
  1 1 57  1.09969065E-04
  1 1 58  1.10113241E-04
  1 1 59  1.10097440E-04
  1 1 60  1.09968861E-04
  1 1 61  1.10098116E-04
  1 1 62  1.10091633E-04
  1 1 63  1.09912427E-04
  1 1 64  1.10116164E-04
  1 1 65  1.09957719E-04
  1 1 66  1.10011358E-04
  1 1 67  1.10042379E-04
END period  1

