# File generated by Flopy version 3.6.0.dev0 on 02/07/2024 at 20:15:55.
BEGIN options
  XT3D_OFF
END options

BEGIN griddata
  diffc
    CONSTANT  9.00000000E-04
  alh
    CONSTANT  9.00000000E-07
  ath1
    CONSTANT  9.00000000E-07
END griddata

