# File generated by Flopy version 3.6.0.dev0 on 02/07/2024 at 20:15:55.
BEGIN griddata
  strt
    CONSTANT  8.40000000E-05
END griddata

