# File generated by Flopy version 3.6.0.dev0 on 02/07/2024 at 20:14:55.
BEGIN options
END options

BEGIN timing
  TDIS6  ex-gwf-hanic.tdis
END timing

BEGIN models
  gwf6  ex-gwf-hanic.nam  ex-gwf-hanic
END models

BEGIN exchanges
END exchanges

BEGIN solutiongroup  1
  ims6  ex-gwf-hanic.ims  ex-gwf-hanic
END solutiongroup  1

