# File generated by Flopy version 3.6.0.dev0 on 02/07/2024 at 20:15:16.
BEGIN options
  HEAD  FILEOUT  ex-gwf-maw-p03.hds
END options

BEGIN period  1
  SAVE  HEAD  LAST
  PRINT  BUDGET  LAST
END period  1

