# File generated by Flopy version 3.6.0.dev0 on 02/07/2024 at 20:14:46.
BEGIN options
  SAVE_FLOWS
END options

BEGIN dimensions
  MAXBOUND  18
END dimensions

BEGIN period  1
  1 1 10
  1 2 10
  1 3 10
  1 4 10
  1 5 10
  1 6 10
  1 7 10
  1 8 10
  1 9 10
  1 10 10
  1 11 10
  1 12 10
  1 13 10
  1 14 10
  1 15 10
  1 16 10
  1 17 10
  1 18 10
END period  1

