# File generated by Flopy version 3.6.0.dev0 on 02/07/2024 at 20:14:46.
BEGIN options
  SAVE_FLOWS
END options

BEGIN packages
  DISV6  ex-gwf-curve-90.disv  disv
  NPF6  ex-gwf-curve-90.npf  npf
  STO6  ex-gwf-curve-90.sto  sto
  IC6  ex-gwf-curve-90.ic  ic
  CHD6  ex-gwf-curve-90.inner.chd  chd-inner
  CHD6  ex-gwf-curve-90.outer.chd  chd-outer
  OC6  ex-gwf-curve-90.oc  oc
END packages

