# File generated by Flopy version 3.6.0.dev0 on 02/07/2024 at 20:14:46.
BEGIN options
END options

BEGIN timing
  TDIS6  ex-gwf-curve-90.tdis
END timing

BEGIN models
  gwf6  ex-gwf-curve-90.nam  ex-gwf-curve-90
END models

BEGIN exchanges
END exchanges

BEGIN solutiongroup  1
  ims6  ex-gwf-curve-90.ims  ex-gwf-curve-90
END solutiongroup  1

