# File generated by Flopy version 3.6.0.dev0 on 02/07/2024 at 20:16:05.
BEGIN options
  TIME_UNITS  seconds
END options

BEGIN dimensions
  NPER  600
END dimensions

BEGIN perioddata
  5.25600000E+05  6       1.00000000
  5.25600000E+05  6       1.00000000
  5.25600000E+05  6       1.00000000
  5.25600000E+05  6       1.00000000
  5.25600000E+05  6       1.00000000
  5.25600000E+05  6       1.00000000
  5.25600000E+05  6       1.00000000
  5.25600000E+05  6       1.00000000
  5.25600000E+05  6       1.00000000
  5.25600000E+05  6       1.00000000
  5.25600000E+05  6       1.00000000
  5.25600000E+05  6       1.00000000
  5.25600000E+05  6       1.00000000
  5.25600000E+05  6       1.00000000
  5.25600000E+05  6       1.00000000
  5.25600000E+05  6       1.00000000
  5.25600000E+05  6       1.00000000
  5.25600000E+05  6       1.00000000
  5.25600000E+05  6       1.00000000
  5.25600000E+05  6       1.00000000
  5.25600000E+05  6       1.00000000
  5.25600000E+05  6       1.00000000
  5.25600000E+05  6       1.00000000
  5.25600000E+05  6       1.00000000
  5.25600000E+05  6       1.00000000
  5.25600000E+05  6       1.00000000
  5.25600000E+05  6       1.00000000
  5.25600000E+05  6       1.00000000
  5.25600000E+05  6       1.00000000
  5.25600000E+05  6       1.00000000
  5.25600000E+05  6       1.00000000
  5.25600000E+05  6       1.00000000
  5.25600000E+05  6       1.00000000
  5.25600000E+05  6       1.00000000
  5.25600000E+05  6       1.00000000
  5.25600000E+05  6       1.00000000
  5.25600000E+05  6       1.00000000
  5.25600000E+05  6       1.00000000
  5.25600000E+05  6       1.00000000
  5.25600000E+05  6       1.00000000
  5.25600000E+05  6       1.00000000
  5.25600000E+05  6       1.00000000
  5.25600000E+05  6       1.00000000
  5.25600000E+05  6       1.00000000
  5.25600000E+05  6       1.00000000
  5.25600000E+05  6       1.00000000
  5.25600000E+05  6       1.00000000
  5.25600000E+05  6       1.00000000
  5.25600000E+05  6       1.00000000
  5.25600000E+05  6       1.00000000
  5.25600000E+05  6       1.00000000
  5.25600000E+05  6       1.00000000
  5.25600000E+05  6       1.00000000
  5.25600000E+05  6       1.00000000
  5.25600000E+05  6       1.00000000
  5.25600000E+05  6       1.00000000
  5.25600000E+05  6       1.00000000
  5.25600000E+05  6       1.00000000
  5.25600000E+05  6       1.00000000
  5.25600000E+05  6       1.00000000
  5.25600000E+05  6       1.00000000
  5.25600000E+05  6       1.00000000
  5.25600000E+05  6       1.00000000
  5.25600000E+05  6       1.00000000
  5.25600000E+05  6       1.00000000
  5.25600000E+05  6       1.00000000
  5.25600000E+05  6       1.00000000
  5.25600000E+05  6       1.00000000
  5.25600000E+05  6       1.00000000
  5.25600000E+05  6       1.00000000
  5.25600000E+05  6       1.00000000
  5.25600000E+05  6       1.00000000
  5.25600000E+05  6       1.00000000
  5.25600000E+05  6       1.00000000
  5.25600000E+05  6       1.00000000
  5.25600000E+05  6       1.00000000
  5.25600000E+05  6       1.00000000
  5.25600000E+05  6       1.00000000
  5.25600000E+05  6       1.00000000
  5.25600000E+05  6       1.00000000
  5.25600000E+05  6       1.00000000
  5.25600000E+05  6       1.00000000
  5.25600000E+05  6       1.00000000
  5.25600000E+05  6       1.00000000
  5.25600000E+05  6       1.00000000
  5.25600000E+05  6       1.00000000
  5.25600000E+05  6       1.00000000
  5.25600000E+05  6       1.00000000
  5.25600000E+05  6       1.00000000
  5.25600000E+05  6       1.00000000
  5.25600000E+05  6       1.00000000
  5.25600000E+05  6       1.00000000
  5.25600000E+05  6       1.00000000
  5.25600000E+05  6       1.00000000
  5.25600000E+05  6       1.00000000
  5.25600000E+05  6       1.00000000
  5.25600000E+05  6       1.00000000
  5.25600000E+05  6       1.00000000
  5.25600000E+05  6       1.00000000
  5.25600000E+05  6       1.00000000
  5.25600000E+05  6       1.00000000
  5.25600000E+05  6       1.00000000
  5.25600000E+05  6       1.00000000
  5.25600000E+05  6       1.00000000
  5.25600000E+05  6       1.00000000
  5.25600000E+05  6       1.00000000
  5.25600000E+05  6       1.00000000
  5.25600000E+05  6       1.00000000
  5.25600000E+05  6       1.00000000
  5.25600000E+05  6       1.00000000
  5.25600000E+05  6       1.00000000
  5.25600000E+05  6       1.00000000
  5.25600000E+05  6       1.00000000
  5.25600000E+05  6       1.00000000
  5.25600000E+05  6       1.00000000
  5.25600000E+05  6       1.00000000
  5.25600000E+05  6       1.00000000
  5.25600000E+05  6       1.00000000
  5.25600000E+05  6       1.00000000
  5.25600000E+05  6       1.00000000
  5.25600000E+05  6       1.00000000
  5.25600000E+05  6       1.00000000
  5.25600000E+05  6       1.00000000
  5.25600000E+05  6       1.00000000
  5.25600000E+05  6       1.00000000
  5.25600000E+05  6       1.00000000
  5.25600000E+05  6       1.00000000
  5.25600000E+05  6       1.00000000
  5.25600000E+05  6       1.00000000
  5.25600000E+05  6       1.00000000
  5.25600000E+05  6       1.00000000
  5.25600000E+05  6       1.00000000
  5.25600000E+05  6       1.00000000
  5.25600000E+05  6       1.00000000
  5.25600000E+05  6       1.00000000
  5.25600000E+05  6       1.00000000
  5.25600000E+05  6       1.00000000
  5.25600000E+05  6       1.00000000
  5.25600000E+05  6       1.00000000
  5.25600000E+05  6       1.00000000
  5.25600000E+05  6       1.00000000
  5.25600000E+05  6       1.00000000
  5.25600000E+05  6       1.00000000
  5.25600000E+05  6       1.00000000
  5.25600000E+05  6       1.00000000
  5.25600000E+05  6       1.00000000
  5.25600000E+05  6       1.00000000
  5.25600000E+05  6       1.00000000
  5.25600000E+05  6       1.00000000
  5.25600000E+05  6       1.00000000
  5.25600000E+05  6       1.00000000
  5.25600000E+05  6       1.00000000
  5.25600000E+05  6       1.00000000
  5.25600000E+05  6       1.00000000
  5.25600000E+05  6       1.00000000
  5.25600000E+05  6       1.00000000
  5.25600000E+05  6       1.00000000
  5.25600000E+05  6       1.00000000
  5.25600000E+05  6       1.00000000
  5.25600000E+05  6       1.00000000
  5.25600000E+05  6       1.00000000
  5.25600000E+05  6       1.00000000
  5.25600000E+05  6       1.00000000
  5.25600000E+05  6       1.00000000
  5.25600000E+05  6       1.00000000
  5.25600000E+05  6       1.00000000
  5.25600000E+05  6       1.00000000
  5.25600000E+05  6       1.00000000
  5.25600000E+05  6       1.00000000
  5.25600000E+05  6       1.00000000
  5.25600000E+05  6       1.00000000
  5.25600000E+05  6       1.00000000
  5.25600000E+05  6       1.00000000
  5.25600000E+05  6       1.00000000
  5.25600000E+05  6       1.00000000
  5.25600000E+05  6       1.00000000
  5.25600000E+05  6       1.00000000
  5.25600000E+05  6       1.00000000
  5.25600000E+05  6       1.00000000
  5.25600000E+05  6       1.00000000
  5.25600000E+05  6       1.00000000
  5.25600000E+05  6       1.00000000
  5.25600000E+05  6       1.00000000
  5.25600000E+05  6       1.00000000
  5.25600000E+05  6       1.00000000
  5.25600000E+05  6       1.00000000
  5.25600000E+05  6       1.00000000
  5.25600000E+05  6       1.00000000
  5.25600000E+05  6       1.00000000
  5.25600000E+05  6       1.00000000
  5.25600000E+05  6       1.00000000
  5.25600000E+05  6       1.00000000
  5.25600000E+05  6       1.00000000
  5.25600000E+05  6       1.00000000
  5.25600000E+05  6       1.00000000
  5.25600000E+05  6       1.00000000
  5.25600000E+05  6       1.00000000
  5.25600000E+05  6       1.00000000
  5.25600000E+05  6       1.00000000
  5.25600000E+05  6       1.00000000
  5.25600000E+05  6       1.00000000
  5.25600000E+05  6       1.00000000
  5.25600000E+05  6       1.00000000
  5.25600000E+05  6       1.00000000
  5.25600000E+05  6       1.00000000
  5.25600000E+05  6       1.00000000
  5.25600000E+05  6       1.00000000
  5.25600000E+05  6       1.00000000
  5.25600000E+05  6       1.00000000
  5.25600000E+05  6       1.00000000
  5.25600000E+05  6       1.00000000
  5.25600000E+05  6       1.00000000
  5.25600000E+05  6       1.00000000
  5.25600000E+05  6       1.00000000
  5.25600000E+05  6       1.00000000
  5.25600000E+05  6       1.00000000
  5.25600000E+05  6       1.00000000
  5.25600000E+05  6       1.00000000
  5.25600000E+05  6       1.00000000
  5.25600000E+05  6       1.00000000
  5.25600000E+05  6       1.00000000
  5.25600000E+05  6       1.00000000
  5.25600000E+05  6       1.00000000
  5.25600000E+05  6       1.00000000
  5.25600000E+05  6       1.00000000
  5.25600000E+05  6       1.00000000
  5.25600000E+05  6       1.00000000
  5.25600000E+05  6       1.00000000
  5.25600000E+05  6       1.00000000
  5.25600000E+05  6       1.00000000
  5.25600000E+05  6       1.00000000
  5.25600000E+05  6       1.00000000
  5.25600000E+05  6       1.00000000
  5.25600000E+05  6       1.00000000
  5.25600000E+05  6       1.00000000
  5.25600000E+05  6       1.00000000
  5.25600000E+05  6       1.00000000
  5.25600000E+05  6       1.00000000
  5.25600000E+05  6       1.00000000
  5.25600000E+05  6       1.00000000
  5.25600000E+05  6       1.00000000
  5.25600000E+05  6       1.00000000
  5.25600000E+05  6       1.00000000
  5.25600000E+05  6       1.00000000
  5.25600000E+05  6       1.00000000
  5.25600000E+05  6       1.00000000
  5.25600000E+05  6       1.00000000
  5.25600000E+05  6       1.00000000
  5.25600000E+05  6       1.00000000
  5.25600000E+05  6       1.00000000
  5.25600000E+05  6       1.00000000
  5.25600000E+05  6       1.00000000
  5.25600000E+05  6       1.00000000
  5.25600000E+05  6       1.00000000
  5.25600000E+05  6       1.00000000
  5.25600000E+05  6       1.00000000
  5.25600000E+05  6       1.00000000
  5.25600000E+05  6       1.00000000
  5.25600000E+05  6       1.00000000
  5.25600000E+05  6       1.00000000
  5.25600000E+05  6       1.00000000
  5.25600000E+05  6       1.00000000
  5.25600000E+05  6       1.00000000
  5.25600000E+05  6       1.00000000
  5.25600000E+05  6       1.00000000
  5.25600000E+05  6       1.00000000
  5.25600000E+05  6       1.00000000
  5.25600000E+05  6       1.00000000
  5.25600000E+05  6       1.00000000
  5.25600000E+05  6       1.00000000
  5.25600000E+05  6       1.00000000
  5.25600000E+05  6       1.00000000
  5.25600000E+05  6       1.00000000
  5.25600000E+05  6       1.00000000
  5.25600000E+05  6       1.00000000
  5.25600000E+05  6       1.00000000
  5.25600000E+05  6       1.00000000
  5.25600000E+05  6       1.00000000
  5.25600000E+05  6       1.00000000
  5.25600000E+05  6       1.00000000
  5.25600000E+05  6       1.00000000
  5.25600000E+05  6       1.00000000
  5.25600000E+05  6       1.00000000
  5.25600000E+05  6       1.00000000
  5.25600000E+05  6       1.00000000
  5.25600000E+05  6       1.00000000
  5.25600000E+05  6       1.00000000
  5.25600000E+05  6       1.00000000
  5.25600000E+05  6       1.00000000
  5.25600000E+05  6       1.00000000
  5.25600000E+05  6       1.00000000
  5.25600000E+05  6       1.00000000
  5.25600000E+05  6       1.00000000
  5.25600000E+05  6       1.00000000
  5.25600000E+05  6       1.00000000
  5.25600000E+05  6       1.00000000
  5.25600000E+05  6       1.00000000
  5.25600000E+05  6       1.00000000
  5.25600000E+05  6       1.00000000
  5.25600000E+05  6       1.00000000
  5.25600000E+05  6       1.00000000
  5.25600000E+05  6       1.00000000
  5.25600000E+05  6       1.00000000
  5.25600000E+05  6       1.00000000
  5.25600000E+05  6       1.00000000
  5.25600000E+05  6       1.00000000
  5.25600000E+05  6       1.00000000
  5.25600000E+05  6       1.00000000
  5.25600000E+05  6       1.00000000
  5.25600000E+05  6       1.00000000
  5.25600000E+05  6       1.00000000
  5.25600000E+05  6       1.00000000
  5.25600000E+05  6       1.00000000
  5.25600000E+05  6       1.00000000
  5.25600000E+05  6       1.00000000
  5.25600000E+05  6       1.00000000
  5.25600000E+05  6       1.00000000
  5.25600000E+05  6       1.00000000
  5.25600000E+05  6       1.00000000
  5.25600000E+05  6       1.00000000
  5.25600000E+05  6       1.00000000
  5.25600000E+05  6       1.00000000
  5.25600000E+05  6       1.00000000
  5.25600000E+05  6       1.00000000
  5.25600000E+05  6       1.00000000
  5.25600000E+05  6       1.00000000
  5.25600000E+05  6       1.00000000
  5.25600000E+05  6       1.00000000
  5.25600000E+05  6       1.00000000
  5.25600000E+05  6       1.00000000
  5.25600000E+05  6       1.00000000
  5.25600000E+05  6       1.00000000
  5.25600000E+05  6       1.00000000
  5.25600000E+05  6       1.00000000
  5.25600000E+05  6       1.00000000
  5.25600000E+05  6       1.00000000
  5.25600000E+05  6       1.00000000
  5.25600000E+05  6       1.00000000
  5.25600000E+05  6       1.00000000
  5.25600000E+05  6       1.00000000
  5.25600000E+05  6       1.00000000
  5.25600000E+05  6       1.00000000
  5.25600000E+05  6       1.00000000
  5.25600000E+05  6       1.00000000
  5.25600000E+05  6       1.00000000
  5.25600000E+05  6       1.00000000
  5.25600000E+05  6       1.00000000
  5.25600000E+05  6       1.00000000
  5.25600000E+05  6       1.00000000
  5.25600000E+05  6       1.00000000
  5.25600000E+05  6       1.00000000
  5.25600000E+05  6       1.00000000
  5.25600000E+05  6       1.00000000
  5.25600000E+05  6       1.00000000
  5.25600000E+05  6       1.00000000
  5.25600000E+05  6       1.00000000
  5.25600000E+05  6       1.00000000
  5.25600000E+05  6       1.00000000
  5.25600000E+05  6       1.00000000
  5.25600000E+05  6       1.00000000
  5.25600000E+05  6       1.00000000
  5.25600000E+05  6       1.00000000
  5.25600000E+05  6       1.00000000
  5.25600000E+05  6       1.00000000
  5.25600000E+05  6       1.00000000
  5.25600000E+05  6       1.00000000
  5.25600000E+05  6       1.00000000
  5.25600000E+05  6       1.00000000
  5.25600000E+05  6       1.00000000
  5.25600000E+05  6       1.00000000
  5.25600000E+05  6       1.00000000
  5.25600000E+05  6       1.00000000
  5.25600000E+05  6       1.00000000
  5.25600000E+05  6       1.00000000
  5.25600000E+05  6       1.00000000
  5.25600000E+05  6       1.00000000
  5.25600000E+05  6       1.00000000
  5.25600000E+05  6       1.00000000
  5.25600000E+05  6       1.00000000
  5.25600000E+05  6       1.00000000
  5.25600000E+05  6       1.00000000
  5.25600000E+05  6       1.00000000
  5.25600000E+05  6       1.00000000
  5.25600000E+05  6       1.00000000
  5.25600000E+05  6       1.00000000
  5.25600000E+05  6       1.00000000
  5.25600000E+05  6       1.00000000
  5.25600000E+05  6       1.00000000
  5.25600000E+05  6       1.00000000
  5.25600000E+05  6       1.00000000
  5.25600000E+05  6       1.00000000
  5.25600000E+05  6       1.00000000
  5.25600000E+05  6       1.00000000
  5.25600000E+05  6       1.00000000
  5.25600000E+05  6       1.00000000
  5.25600000E+05  6       1.00000000
  5.25600000E+05  6       1.00000000
  5.25600000E+05  6       1.00000000
  5.25600000E+05  6       1.00000000
  5.25600000E+05  6       1.00000000
  5.25600000E+05  6       1.00000000
  5.25600000E+05  6       1.00000000
  5.25600000E+05  6       1.00000000
  5.25600000E+05  6       1.00000000
  5.25600000E+05  6       1.00000000
  5.25600000E+05  6       1.00000000
  5.25600000E+05  6       1.00000000
  5.25600000E+05  6       1.00000000
  5.25600000E+05  6       1.00000000
  5.25600000E+05  6       1.00000000
  5.25600000E+05  6       1.00000000
  5.25600000E+05  6       1.00000000
  5.25600000E+05  6       1.00000000
  5.25600000E+05  6       1.00000000
  5.25600000E+05  6       1.00000000
  5.25600000E+05  6       1.00000000
  5.25600000E+05  6       1.00000000
  5.25600000E+05  6       1.00000000
  5.25600000E+05  6       1.00000000
  5.25600000E+05  6       1.00000000
  5.25600000E+05  6       1.00000000
  5.25600000E+05  6       1.00000000
  5.25600000E+05  6       1.00000000
  5.25600000E+05  6       1.00000000
  5.25600000E+05  6       1.00000000
  5.25600000E+05  6       1.00000000
  5.25600000E+05  6       1.00000000
  5.25600000E+05  6       1.00000000
  5.25600000E+05  6       1.00000000
  5.25600000E+05  6       1.00000000
  5.25600000E+05  6       1.00000000
  5.25600000E+05  6       1.00000000
  5.25600000E+05  6       1.00000000
  5.25600000E+05  6       1.00000000
  5.25600000E+05  6       1.00000000
  5.25600000E+05  6       1.00000000
  5.25600000E+05  6       1.00000000
  5.25600000E+05  6       1.00000000
  5.25600000E+05  6       1.00000000
  5.25600000E+05  6       1.00000000
  5.25600000E+05  6       1.00000000
  5.25600000E+05  6       1.00000000
  5.25600000E+05  6       1.00000000
  5.25600000E+05  6       1.00000000
  5.25600000E+05  6       1.00000000
  5.25600000E+05  6       1.00000000
  5.25600000E+05  6       1.00000000
  5.25600000E+05  6       1.00000000
  5.25600000E+05  6       1.00000000
  5.25600000E+05  6       1.00000000
  5.25600000E+05  6       1.00000000
  5.25600000E+05  6       1.00000000
  5.25600000E+05  6       1.00000000
  5.25600000E+05  6       1.00000000
  5.25600000E+05  6       1.00000000
  5.25600000E+05  6       1.00000000
  5.25600000E+05  6       1.00000000
  5.25600000E+05  6       1.00000000
  5.25600000E+05  6       1.00000000
  5.25600000E+05  6       1.00000000
  5.25600000E+05  6       1.00000000
  5.25600000E+05  6       1.00000000
  5.25600000E+05  6       1.00000000
  5.25600000E+05  6       1.00000000
  5.25600000E+05  6       1.00000000
  5.25600000E+05  6       1.00000000
  5.25600000E+05  6       1.00000000
  5.25600000E+05  6       1.00000000
  5.25600000E+05  6       1.00000000
  5.25600000E+05  6       1.00000000
  5.25600000E+05  6       1.00000000
  5.25600000E+05  6       1.00000000
  5.25600000E+05  6       1.00000000
  5.25600000E+05  6       1.00000000
  5.25600000E+05  6       1.00000000
  5.25600000E+05  6       1.00000000
  5.25600000E+05  6       1.00000000
  5.25600000E+05  6       1.00000000
  5.25600000E+05  6       1.00000000
  5.25600000E+05  6       1.00000000
  5.25600000E+05  6       1.00000000
  5.25600000E+05  6       1.00000000
  5.25600000E+05  6       1.00000000
  5.25600000E+05  6       1.00000000
  5.25600000E+05  6       1.00000000
  5.25600000E+05  6       1.00000000
  5.25600000E+05  6       1.00000000
  5.25600000E+05  6       1.00000000
  5.25600000E+05  6       1.00000000
  5.25600000E+05  6       1.00000000
  5.25600000E+05  6       1.00000000
  5.25600000E+05  6       1.00000000
  5.25600000E+05  6       1.00000000
  5.25600000E+05  6       1.00000000
  5.25600000E+05  6       1.00000000
  5.25600000E+05  6       1.00000000
  5.25600000E+05  6       1.00000000
  5.25600000E+05  6       1.00000000
  5.25600000E+05  6       1.00000000
  5.25600000E+05  6       1.00000000
  5.25600000E+05  6       1.00000000
  5.25600000E+05  6       1.00000000
  5.25600000E+05  6       1.00000000
  5.25600000E+05  6       1.00000000
  5.25600000E+05  6       1.00000000
  5.25600000E+05  6       1.00000000
  5.25600000E+05  6       1.00000000
  5.25600000E+05  6       1.00000000
  5.25600000E+05  6       1.00000000
  5.25600000E+05  6       1.00000000
  5.25600000E+05  6       1.00000000
  5.25600000E+05  6       1.00000000
  5.25600000E+05  6       1.00000000
  5.25600000E+05  6       1.00000000
  5.25600000E+05  6       1.00000000
  5.25600000E+05  6       1.00000000
  5.25600000E+05  6       1.00000000
  5.25600000E+05  6       1.00000000
  5.25600000E+05  6       1.00000000
  5.25600000E+05  6       1.00000000
  5.25600000E+05  6       1.00000000
  5.25600000E+05  6       1.00000000
  5.25600000E+05  6       1.00000000
  5.25600000E+05  6       1.00000000
  5.25600000E+05  6       1.00000000
  5.25600000E+05  6       1.00000000
  5.25600000E+05  6       1.00000000
  5.25600000E+05  6       1.00000000
  5.25600000E+05  6       1.00000000
  5.25600000E+05  6       1.00000000
  5.25600000E+05  6       1.00000000
  5.25600000E+05  6       1.00000000
  5.25600000E+05  6       1.00000000
  5.25600000E+05  6       1.00000000
  5.25600000E+05  6       1.00000000
  5.25600000E+05  6       1.00000000
  5.25600000E+05  6       1.00000000
  5.25600000E+05  6       1.00000000
  5.25600000E+05  6       1.00000000
  5.25600000E+05  6       1.00000000
  5.25600000E+05  6       1.00000000
  5.25600000E+05  6       1.00000000
  5.25600000E+05  6       1.00000000
  5.25600000E+05  6       1.00000000
  5.25600000E+05  6       1.00000000
  5.25600000E+05  6       1.00000000
  5.25600000E+05  6       1.00000000
  5.25600000E+05  6       1.00000000
  5.25600000E+05  6       1.00000000
  5.25600000E+05  6       1.00000000
  5.25600000E+05  6       1.00000000
  5.25600000E+05  6       1.00000000
  5.25600000E+05  6       1.00000000
  5.25600000E+05  6       1.00000000
  5.25600000E+05  6       1.00000000
  5.25600000E+05  6       1.00000000
  5.25600000E+05  6       1.00000000
  5.25600000E+05  6       1.00000000
  5.25600000E+05  6       1.00000000
  5.25600000E+05  6       1.00000000
  5.25600000E+05  6       1.00000000
  5.25600000E+05  6       1.00000000
  5.25600000E+05  6       1.00000000
  5.25600000E+05  6       1.00000000
  5.25600000E+05  6       1.00000000
  5.25600000E+05  6       1.00000000
  5.25600000E+05  6       1.00000000
  5.25600000E+05  6       1.00000000
  5.25600000E+05  6       1.00000000
  5.25600000E+05  6       1.00000000
  5.25600000E+05  6       1.00000000
  5.25600000E+05  6       1.00000000
  5.25600000E+05  6       1.00000000
  5.25600000E+05  6       1.00000000
  5.25600000E+05  6       1.00000000
  5.25600000E+05  6       1.00000000
  5.25600000E+05  6       1.00000000
  5.25600000E+05  6       1.00000000
  5.25600000E+05  6       1.00000000
  5.25600000E+05  6       1.00000000
  5.25600000E+05  6       1.00000000
  5.25600000E+05  6       1.00000000
  5.25600000E+05  6       1.00000000
  5.25600000E+05  6       1.00000000
  5.25600000E+05  6       1.00000000
  5.25600000E+05  6       1.00000000
  5.25600000E+05  6       1.00000000
  5.25600000E+05  6       1.00000000
  5.25600000E+05  6       1.00000000
  5.25600000E+05  6       1.00000000
  5.25600000E+05  6       1.00000000
  5.25600000E+05  6       1.00000000
  5.25600000E+05  6       1.00000000
  5.25600000E+05  6       1.00000000
  5.25600000E+05  6       1.00000000
  5.25600000E+05  6       1.00000000
  5.25600000E+05  6       1.00000000
  5.25600000E+05  6       1.00000000
  5.25600000E+05  6       1.00000000
  5.25600000E+05  6       1.00000000
END perioddata

