# File generated by Flopy version 3.6.0.dev0 on 02/07/2024 at 20:16:11.
BEGIN griddata
  strt  LAYERED
    CONSTANT      10.00000000
    CONSTANT      10.00000000
    CONSTANT      10.00000000
    CONSTANT      10.00000000
    CONSTANT      10.00000000
    CONSTANT      10.00000000
    CONSTANT      10.00000000
    CONSTANT      10.00000000
    CONSTANT      10.00000000
    CONSTANT      10.00000000
    CONSTANT      10.00000000
    CONSTANT      10.00000000
    CONSTANT      10.00000000
    CONSTANT      10.00000000
    CONSTANT      10.00000000
    CONSTANT      10.00000000
    CONSTANT      10.00000000
    CONSTANT      10.00000000
    CONSTANT      10.00000000
    CONSTANT      10.00000000
    CONSTANT      10.00000000
    CONSTANT      10.00000000
    CONSTANT      10.00000000
    CONSTANT      10.00000000
    CONSTANT      10.00000000
    CONSTANT      10.00000000
    CONSTANT      10.00000000
    CONSTANT      10.00000000
    CONSTANT      10.00000000
    CONSTANT      10.00000000
    CONSTANT      10.00000000
    CONSTANT      10.00000000
    CONSTANT      10.00000000
    CONSTANT      10.00000000
    CONSTANT      10.00000000
    CONSTANT      10.00000000
    CONSTANT      10.00000000
    CONSTANT      10.00000000
    CONSTANT      10.00000000
    CONSTANT      10.00000000
    CONSTANT      10.00000000
    CONSTANT      10.00000000
    CONSTANT      10.00000000
    CONSTANT      10.00000000
    CONSTANT      10.00000000
    CONSTANT      10.00000000
    CONSTANT      10.00000000
    CONSTANT      10.00000000
    CONSTANT      10.00000000
    CONSTANT      10.00000000
    CONSTANT      10.00000000
    CONSTANT      10.00000000
    CONSTANT      10.00000000
    CONSTANT      10.00000000
    CONSTANT      10.00000000
    CONSTANT      10.00000000
    CONSTANT      10.00000000
    CONSTANT      10.00000000
    CONSTANT      10.00000000
    CONSTANT      10.00000000
    CONSTANT      10.00000000
    CONSTANT      10.00000000
    CONSTANT      10.00000000
    CONSTANT      10.00000000
    CONSTANT      10.00000000
    CONSTANT      10.00000000
    CONSTANT      10.00000000
    CONSTANT      10.00000000
    CONSTANT      10.00000000
    CONSTANT      10.00000000
    CONSTANT      10.00000000
    CONSTANT      10.00000000
    CONSTANT      10.00000000
    CONSTANT      10.00000000
    CONSTANT      10.00000000
    CONSTANT      10.00000000
    CONSTANT      10.00000000
    CONSTANT      10.00000000
    CONSTANT      10.00000000
    CONSTANT      10.00000000
    CONSTANT      10.00000000
    CONSTANT      10.00000000
    CONSTANT      10.00000000
    CONSTANT      10.00000000
    CONSTANT      10.00000000
    CONSTANT      10.00000000
    CONSTANT      10.00000000
    CONSTANT      10.00000000
    CONSTANT      10.00000000
    CONSTANT      10.00000000
    CONSTANT      10.00000000
    CONSTANT      10.00000000
    CONSTANT      10.00000000
    CONSTANT      10.00000000
    CONSTANT      10.00000000
    CONSTANT      10.00000000
    CONSTANT      10.00000000
    CONSTANT      10.00000000
    CONSTANT      10.00000000
    CONSTANT      10.00000000
    CONSTANT      10.00000000
    CONSTANT      10.00000000
    CONSTANT      10.00000000
    CONSTANT      10.00000000
    CONSTANT      10.00000000
    CONSTANT      10.00000000
    CONSTANT      10.00000000
    CONSTANT      10.00000000
    CONSTANT      10.00000000
    CONSTANT      10.00000000
    CONSTANT      10.00000000
    CONSTANT      10.00000000
    CONSTANT      10.00000000
    CONSTANT      10.00000000
    CONSTANT      10.00000000
    CONSTANT      10.00000000
    CONSTANT      10.00000000
    CONSTANT      10.00000000
    CONSTANT      10.00000000
    CONSTANT      10.00000000
END griddata

