# File generated by Flopy version 3.6.0.dev0 on 02/07/2024 at 20:16:11.
BEGIN options
  SORPTION  linear
END options

BEGIN griddata
  porosity
    CONSTANT       0.35000000
  bulk_density
    CONSTANT    1709.50000000
  distcoef
    CONSTANT  1.91663000E-04
END griddata

