# File generated by Flopy version 3.6.0.dev0 on 02/07/2024 at 20:16:11.
BEGIN options
END options

BEGIN packages
  DIS6  trans.dis  dis
  MST6  trans.mst  mst
  IC6  trans.ic  ic
  ADV6  trans.adv  adv
  DSP6  trans.dsp  dsp
  SSM6  trans.ssm  ssm
  CNC6  trans.cnc  cnc_0
  OC6  trans.oc  oc
END packages

