# File generated by Flopy version 3.6.0.dev0 on 02/07/2024 at 20:16:11.
BEGIN options
  XT3D_OFF
END options

BEGIN griddata
  diffc
    CONSTANT  1.02882000E-06
  alh
    CONSTANT       0.00000000
  ath1
    CONSTANT       0.00000000
END griddata

