# File generated by Flopy version 3.9.1 on 02/10/2025 at 11:29:40.
BEGIN options
END options

BEGIN dimensions
  MAXBOUND  1
END dimensions

BEGIN period  1
  1 1 120 1.00000000E+00
END period  1

