# File generated by Flopy version 3.9.1 on 02/10/2025 at 11:29:40.
BEGIN options
  LENGTH_UNITS  centimeters
END options

BEGIN dimensions
  NLAY  1
  NROW  1
  NCOL  120
END dimensions

BEGIN griddata
  delr
    CONSTANT       0.10000000
  delc
    CONSTANT       0.10000000
  top
    CONSTANT       1.00000000
  botm
    CONSTANT       0.00000000
END griddata

