# File generated by Flopy version 3.9.1 on 02/10/2025 at 11:29:40.
BEGIN options
  SAVE_FLOWS
END options

BEGIN packages
  DIS6  flow.dis  dis
  IC6  flow.ic  ic
  NPF6  flow.npf  npf
  CHD6  flow.chd  chd_0
  WEL6  flow.wel  wel-1
  OC6  flow.oc  oc
END packages

