# File generated by Flopy version 3.9.1 on 02/10/2025 at 11:29:40.
BEGIN options
END options

BEGIN griddata
  strt
    CONSTANT       1.00000000
END griddata

