# File generated by Flopy version 3.9.1 on 02/10/2025 at 11:29:40.
BEGIN options
END options

BEGIN timing
  TDIS6  flow.tdis
END timing

BEGIN models
  gwf6  flow.nam  flow
END models

BEGIN exchanges
END exchanges

BEGIN solutiongroup  1
  ims6  flow.ims  flow
END solutiongroup  1

