# File generated by Flopy version 3.6.0.dev0 on 02/07/2024 at 20:15:47.
BEGIN options
END options

BEGIN griddata
  alh
    CONSTANT      10.00000000
  ath1
    CONSTANT       3.00000000
  atv
    CONSTANT       0.30000000
END griddata

