# File generated by Flopy version 3.6.0.dev0 on 02/07/2024 at 20:15:47.
BEGIN options
END options

BEGIN packagedata
  GWFHEAD  FILEIN  ../mf6gwf/flow.hds
  GWFBUDGET  FILEIN  ../mf6gwf/flow.bud
  GWFMOVER  FILEIN  ../mf6gwf/flow.mvr.bud
  MAW-1  FILEIN  ../mf6gwf/flow.maw.bud
END packagedata

