# File generated by Flopy version 3.6.0.dev0 on 02/07/2024 at 20:15:19.
BEGIN options
  HEAD  FILEOUT  ex-gwf-nwt-p03.hds
END options

BEGIN period  1
  SAVE  HEAD  ALL
END period  1

