# File generated by Flopy version 3.6.0.dev0 on 02/07/2024 at 20:15:19.
BEGIN options
END options

BEGIN timing
  TDIS6  ex-gwf-nwt-p03.tdis
END timing

BEGIN models
  gwf6  ex-gwf-nwt-p03.nam  ex-gwf-nwt-p03
END models

BEGIN exchanges
END exchanges

BEGIN solutiongroup  1
  ims6  ex-gwf-nwt-p03.ims  ex-gwf-nwt-p03
END solutiongroup  1

