# NWT package for MODFLOW-NWT generated by Flopy 3.6.0.dev0
 1.000e-02 5.000e+02       100 1.000e-05         1         0         0   COMPLEX
