# File generated by Flopy version 3.6.0.dev0 on 02/07/2024 at 20:15:44.
BEGIN options
  READASARRAYS
  PRINT_FLOWS
END options

BEGIN period  1
  recharge
    CONSTANT       0.00114155
END period  1

