# File generated by Flopy version 3.6.0.dev0 on 02/07/2024 at 20:15:44.
BEGIN options
  BUDGET  FILEOUT  gwf-p10-mf6.bud
  HEAD  FILEOUT  gwf-p10-mf6.hds
  HEAD  PRINT_FORMAT  COLUMNS  10  WIDTH  15  DIGITS  6  GENERAL
END options

BEGIN period  1
  SAVE  HEAD  LAST
  SAVE  HEAD  STEPS  1  250  375  500
  SAVE  BUDGET  LAST
  PRINT  HEAD  LAST
  PRINT  BUDGET  FIRST
  PRINT  BUDGET  LAST
END period  1

