# File generated by Flopy version 3.6.0.dev0 on 02/07/2024 at 20:15:44.
BEGIN options
  auxiliary  CONCENTRATION
  PRINT_INPUT
  PRINT_FLOWS
END options

BEGIN dimensions
  MAXBOUND  8
END dimensions

BEGIN period  1
  3 11 29 -1.92300000E+04 0.00000000E+00
  3 19 26 -1.92300000E+04 0.00000000E+00
  3 26 23 -1.92300000E+04 0.00000000E+00
  3 33 20 -1.92300000E+04 0.00000000E+00
  3 40 17 -1.92300000E+04 0.00000000E+00
  3 48 14 -1.92300000E+04 0.00000000E+00
  3 48 9 -1.53840000E+04 0.00000000E+00
  3 52 17 -1.73070000E+04 0.00000000E+00
END period  1

