# File generated by Flopy version 3.6.0.dev0 on 02/07/2024 at 20:15:44.
BEGIN options
END options

BEGIN griddata
  alh
    CONSTANT      10.00000000
  ath1
    CONSTANT       2.00000000
  atv
    CONSTANT       2.00000000
END griddata

